  Page 1                                    Mon Apr 13 17:43:46 2026

  ******************************************************************
  *                           E P A N E T                          *
  *                   Hydraulic and Water Quality                  *
  *                   Analysis for Pipe Networks                   *
  *                         Version 2.00.12                        *
  ******************************************************************
  
  Analysis begun Mon Apr 13 17:43:46 2026

  WARNING: Negative pressures at 0:00:00 hrs.
  
  WARNING: Negative pressures at 1:00:00 hrs.
  
  WARNING: Negative pressures at 2:00:00 hrs.
  
  WARNING: Negative pressures at 3:00:00 hrs.
  
  WARNING: Negative pressures at 4:00:00 hrs.
  
  WARNING: Negative pressures at 5:00:00 hrs.
  
  WARNING: Negative pressures at 6:00:00 hrs.
  
  WARNING: Negative pressures at 7:00:00 hrs.
  
  WARNING: Negative pressures at 8:00:00 hrs.
  
  WARNING: Negative pressures at 9:00:00 hrs.
  
  WARNING: Negative pressures at 10:00:00 hrs.
  
  WARNING: Negative pressures at 11:00:00 hrs.
  
  WARNING: Negative pressures at 12:00:00 hrs.
  
  WARNING: Negative pressures at 13:00:00 hrs.
  
  WARNING: Negative pressures at 14:00:00 hrs.
  
  WARNING: Negative pressures at 15:00:00 hrs.
  
  WARNING: Negative pressures at 16:00:00 hrs.
  
  WARNING: Negative pressures at 17:00:00 hrs.
  
  WARNING: Negative pressures at 18:00:00 hrs.
  
  WARNING: Negative pressures at 19:00:00 hrs.
  
  WARNING: Negative pressures at 20:00:00 hrs.
  
  WARNING: Negative pressures at 21:00:00 hrs.
  
  WARNING: Negative pressures at 22:00:00 hrs.
  
  WARNING: Negative pressures at 23:00:00 hrs.
  
  WARNING: Negative pressures at 24:00:00 hrs.
  
  WARNING: Negative pressures at 25:00:00 hrs.
  
  WARNING: Negative pressures at 26:00:00 hrs.
  
  WARNING: Negative pressures at 27:00:00 hrs.
  
  WARNING: Negative pressures at 28:00:00 hrs.
  
  WARNING: Negative pressures at 0:00:00 hrs.
  
  WARNING: Negative pressures at 1:00:00 hrs.
  
  WARNING: Negative pressures at 2:00:00 hrs.
  
  WARNING: Negative pressures at 3:00:00 hrs.
  
  WARNING: Negative pressures at 4:00:00 hrs.
  
  WARNING: Negative pressures at 5:00:00 hrs.
  
  WARNING: Negative pressures at 6:00:00 hrs.
  
  WARNING: Negative pressures at 7:00:00 hrs.
  
  WARNING: Negative pressures at 8:00:00 hrs.
  
  WARNING: Negative pressures at 9:00:00 hrs.
  
  WARNING: Negative pressures at 10:00:00 hrs.
  
  WARNING: Negative pressures at 11:00:00 hrs.
  
  WARNING: Negative pressures at 12:00:00 hrs.
  
  WARNING: Negative pressures at 13:00:00 hrs.
  
  WARNING: Negative pressures at 14:00:00 hrs.
  
  WARNING: Negative pressures at 15:00:00 hrs.
  
  WARNING: Negative pressures at 16:00:00 hrs.
  
  WARNING: Negative pressures at 17:00:00 hrs.
  
  WARNING: Negative pressures at 18:00:00 hrs.
  
  WARNING: Negative pressures at 19:00:00 hrs.
  
  WARNING: Negative pressures at 20:00:00 hrs.
  
  WARNING: Negative pressures at 21:00:00 hrs.
  
  WARNING: Negative pressures at 22:00:00 hrs.
  
  WARNING: Negative pressures at 23:00:00 hrs.
  
  WARNING: Negative pressures at 24:00:00 hrs.
  
  WARNING: Negative pressures at 25:00:00 hrs.
  
  WARNING: Negative pressures at 26:00:00 hrs.
  
  WARNING: Negative pressures at 27:00:00 hrs.
  
  WARNING: Negative pressures at 28:00:00 hrs.
  
  WARNING: Negative pressures at 0:00:00 hrs.
  
  WARNING: Negative pressures at 1:00:00 hrs.
  
  WARNING: Negative pressures at 2:00:00 hrs.
  
  WARNING: Negative pressures at 3:00:00 hrs.
  
  WARNING: Negative pressures at 4:00:00 hrs.
  
  WARNING: Negative pressures at 5:00:00 hrs.
  
  WARNING: Negative pressures at 6:00:00 hrs.
  
  WARNING: Negative pressures at 7:00:00 hrs.
  
  WARNING: Negative pressures at 8:00:00 hrs.
  
  WARNING: Negative pressures at 9:00:00 hrs.
  
  WARNING: Negative pressures at 10:00:00 hrs.
  
  WARNING: Negative pressures at 11:00:00 hrs.
  
  WARNING: Negative pressures at 12:00:00 hrs.
  
  WARNING: Negative pressures at 13:00:00 hrs.
  
  WARNING: Negative pressures at 14:00:00 hrs.
  
  WARNING: Negative pressures at 15:00:00 hrs.
  
  WARNING: Negative pressures at 16:00:00 hrs.
  
  WARNING: Negative pressures at 17:00:00 hrs.
  
  WARNING: Negative pressures at 18:00:00 hrs.
  
  WARNING: Negative pressures at 19:00:00 hrs.
  
  WARNING: Negative pressures at 20:00:00 hrs.
  
  WARNING: Negative pressures at 21:00:00 hrs.
  
  WARNING: Negative pressures at 22:00:00 hrs.
  
  WARNING: Negative pressures at 23:00:00 hrs.
  
  WARNING: Negative pressures at 24:00:00 hrs.
  
  WARNING: Negative pressures at 25:00:00 hrs.
  
  WARNING: Negative pressures at 26:00:00 hrs.
  
  WARNING: Negative pressures at 27:00:00 hrs.
  
  WARNING: Negative pressures at 28:00:00 hrs.
  
  WARNING: Negative pressures at 0:00:00 hrs.
  
  WARNING: Negative pressures at 1:00:00 hrs.
  
  WARNING: Negative pressures at 2:00:00 hrs.
  
  WARNING: Negative pressures at 3:00:00 hrs.
  
  WARNING: Negative pressures at 4:00:00 hrs.
  
  WARNING: Negative pressures at 5:00:00 hrs.
  
  WARNING: Negative pressures at 6:00:00 hrs.
  
  WARNING: Negative pressures at 7:00:00 hrs.
  
  WARNING: Negative pressures at 8:00:00 hrs.
  
  WARNING: Negative pressures at 9:00:00 hrs.
  
  WARNING: Negative pressures at 10:00:00 hrs.
  
  WARNING: Negative pressures at 11:00:00 hrs.
  
  WARNING: Negative pressures at 12:00:00 hrs.
  
  WARNING: Negative pressures at 13:00:00 hrs.
  
  WARNING: Negative pressures at 14:00:00 hrs.
  
  WARNING: Negative pressures at 15:00:00 hrs.
  
  WARNING: Negative pressures at 16:00:00 hrs.
  
  WARNING: Negative pressures at 17:00:00 hrs.
  
  WARNING: Negative pressures at 18:00:00 hrs.
  
  WARNING: Negative pressures at 19:00:00 hrs.
  
  WARNING: Negative pressures at 20:00:00 hrs.
  
  WARNING: Negative pressures at 21:00:00 hrs.
  
  WARNING: Negative pressures at 22:00:00 hrs.
  
  WARNING: Negative pressures at 23:00:00 hrs.
  
  WARNING: Negative pressures at 24:00:00 hrs.
  
  WARNING: Negative pressures at 25:00:00 hrs.
  
  WARNING: Negative pressures at 26:00:00 hrs.
  
  WARNING: Negative pressures at 27:00:00 hrs.
  
  WARNING: Negative pressures at 28:00:00 hrs.
  
  WARNING: Negative pressures at 0:00:00 hrs.
  
  WARNING: Negative pressures at 1:00:00 hrs.
  
  WARNING: Negative pressures at 2:00:00 hrs.
  
  WARNING: Negative pressures at 3:00:00 hrs.
  
  WARNING: Negative pressures at 4:00:00 hrs.
  
  WARNING: Negative pressures at 5:00:00 hrs.
  
  WARNING: Negative pressures at 6:00:00 hrs.
  
  WARNING: Negative pressures at 7:00:00 hrs.
  
  WARNING: Negative pressures at 8:00:00 hrs.
  
  WARNING: Negative pressures at 9:00:00 hrs.
  
  WARNING: Negative pressures at 10:00:00 hrs.
  
  WARNING: Negative pressures at 11:00:00 hrs.
  
  WARNING: Negative pressures at 12:00:00 hrs.
  
  WARNING: Negative pressures at 13:00:00 hrs.
  
  WARNING: Negative pressures at 14:00:00 hrs.
  
  WARNING: Negative pressures at 15:00:00 hrs.
  
  WARNING: Negative pressures at 16:00:00 hrs.
  
  WARNING: Negative pressures at 17:00:00 hrs.
  
  WARNING: Negative pressures at 18:00:00 hrs.
  
  WARNING: Negative pressures at 19:00:00 hrs.
  
  WARNING: Negative pressures at 20:00:00 hrs.
  
  WARNING: Negative pressures at 21:00:00 hrs.
  
  WARNING: Negative pressures at 22:00:00 hrs.
  
  WARNING: Negative pressures at 23:00:00 hrs.
  
  WARNING: Negative pressures at 24:00:00 hrs.
  
  WARNING: Negative pressures at 25:00:00 hrs.
  
  WARNING: Negative pressures at 26:00:00 hrs.
  
  WARNING: Negative pressures at 27:00:00 hrs.
  
  WARNING: Negative pressures at 28:00:00 hrs.
  
  WARNING: Negative pressures at 0:00:00 hrs.
  
  WARNING: Negative pressures at 1:00:00 hrs.
  
  WARNING: Negative pressures at 2:00:00 hrs.
  
  WARNING: Negative pressures at 3:00:00 hrs.
  
  WARNING: Negative pressures at 4:00:00 hrs.
  
  WARNING: Negative pressures at 5:00:00 hrs.
  
  WARNING: Negative pressures at 6:00:00 hrs.
  
  WARNING: Negative pressures at 7:00:00 hrs.
  
  WARNING: Negative pressures at 8:00:00 hrs.
  
  WARNING: Negative pressures at 9:00:00 hrs.
  
  WARNING: Negative pressures at 10:00:00 hrs.
  
  WARNING: Negative pressures at 11:00:00 hrs.
  
  WARNING: Negative pressures at 12:00:00 hrs.
  
  WARNING: Negative pressures at 13:00:00 hrs.
  
  WARNING: Negative pressures at 14:00:00 hrs.
  
  WARNING: Negative pressures at 15:00:00 hrs.
  
  WARNING: Negative pressures at 16:00:00 hrs.
  
  WARNING: Negative pressures at 17:00:00 hrs.
  
  WARNING: Negative pressures at 18:00:00 hrs.
  
  WARNING: Negative pressures at 19:00:00 hrs.
  
  WARNING: Negative pressures at 20:00:00 hrs.
  
  WARNING: Negative pressures at 21:00:00 hrs.
  
  WARNING: Negative pressures at 22:00:00 hrs.
  
  WARNING: Negative pressures at 23:00:00 hrs.
  
  WARNING: Negative pressures at 24:00:00 hrs.
  
  WARNING: Negative pressures at 25:00:00 hrs.
  
  WARNING: Negative pressures at 26:00:00 hrs.
  
  WARNING: Negative pressures at 27:00:00 hrs.
  
  WARNING: Negative pressures at 28:00:00 hrs.
  
  WARNING: Negative pressures at 0:00:00 hrs.
  
  WARNING: Negative pressures at 1:00:00 hrs.
  
  WARNING: Negative pressures at 2:00:00 hrs.
  
  WARNING: Negative pressures at 3:00:00 hrs.
  
  WARNING: Negative pressures at 4:00:00 hrs.
  
  WARNING: Negative pressures at 5:00:00 hrs.
  
  WARNING: Negative pressures at 6:00:00 hrs.
  
  WARNING: Negative pressures at 7:00:00 hrs.
  
  WARNING: Negative pressures at 8:00:00 hrs.
  
  WARNING: Negative pressures at 9:00:00 hrs.
  
  WARNING: Negative pressures at 10:00:00 hrs.
  
  WARNING: Negative pressures at 11:00:00 hrs.
  
  WARNING: Negative pressures at 12:00:00 hrs.
  
  WARNING: Negative pressures at 13:00:00 hrs.
  
  WARNING: Negative pressures at 14:00:00 hrs.
  
  WARNING: Negative pressures at 15:00:00 hrs.
  
  WARNING: Negative pressures at 16:00:00 hrs.
  
  WARNING: Negative pressures at 17:00:00 hrs.
  
  WARNING: Negative pressures at 18:00:00 hrs.
  
  WARNING: Negative pressures at 19:00:00 hrs.
  
  WARNING: Negative pressures at 20:00:00 hrs.
  
  WARNING: Negative pressures at 21:00:00 hrs.
  
  WARNING: Negative pressures at 22:00:00 hrs.
  
  WARNING: Negative pressures at 23:00:00 hrs.
  
  WARNING: Negative pressures at 24:00:00 hrs.
  
  WARNING: Negative pressures at 25:00:00 hrs.
  
  WARNING: Negative pressures at 26:00:00 hrs.
  
  WARNING: Negative pressures at 27:00:00 hrs.
  
  WARNING: Negative pressures at 28:00:00 hrs.
  
  WARNING: Negative pressures at 0:00:00 hrs.
  
  WARNING: Negative pressures at 1:00:00 hrs.
  
  WARNING: Negative pressures at 2:00:00 hrs.
  
  WARNING: Negative pressures at 3:00:00 hrs.
  
  WARNING: Negative pressures at 4:00:00 hrs.
  
  WARNING: Negative pressures at 5:00:00 hrs.
  
  WARNING: Negative pressures at 6:00:00 hrs.
  
  WARNING: Negative pressures at 7:00:00 hrs.
  
  WARNING: Negative pressures at 8:00:00 hrs.
  
  WARNING: Negative pressures at 9:00:00 hrs.
  
  WARNING: Negative pressures at 10:00:00 hrs.
  
  WARNING: Negative pressures at 11:00:00 hrs.
  
  WARNING: Negative pressures at 12:00:00 hrs.
  
  WARNING: Negative pressures at 13:00:00 hrs.
  
  WARNING: Negative pressures at 14:00:00 hrs.
  
  WARNING: Negative pressures at 15:00:00 hrs.
  
  WARNING: Negative pressures at 16:00:00 hrs.
  
  WARNING: Negative pressures at 17:00:00 hrs.
  
  WARNING: Negative pressures at 18:00:00 hrs.
  
  WARNING: Negative pressures at 19:00:00 hrs.
  
  WARNING: Negative pressures at 20:00:00 hrs.
  
  WARNING: Negative pressures at 21:00:00 hrs.
  
  WARNING: Negative pressures at 22:00:00 hrs.
  
  WARNING: Negative pressures at 23:00:00 hrs.
  
  WARNING: Negative pressures at 24:00:00 hrs.
  
  WARNING: Negative pressures at 25:00:00 hrs.
  
  WARNING: Negative pressures at 26:00:00 hrs.
  
  WARNING: Negative pressures at 27:00:00 hrs.
  
  WARNING: Negative pressures at 28:00:00 hrs.
  
  WARNING: Negative pressures at 0:00:00 hrs.
  
  WARNING: Negative pressures at 1:00:00 hrs.
  
  WARNING: Negative pressures at 2:00:00 hrs.
  
  WARNING: Negative pressures at 3:00:00 hrs.
  
  WARNING: Negative pressures at 4:00:00 hrs.
  
  WARNING: Negative pressures at 5:00:00 hrs.
  
  WARNING: Negative pressures at 6:00:00 hrs.
  
  WARNING: Negative pressures at 7:00:00 hrs.
  
  WARNING: Negative pressures at 8:00:00 hrs.
  
  WARNING: Negative pressures at 9:00:00 hrs.
  
  WARNING: Negative pressures at 10:00:00 hrs.
  
  WARNING: Negative pressures at 11:00:00 hrs.
  
  WARNING: Negative pressures at 12:00:00 hrs.
  
  WARNING: Negative pressures at 13:00:00 hrs.
  
  WARNING: Negative pressures at 14:00:00 hrs.
  
  WARNING: Negative pressures at 15:00:00 hrs.
  
  WARNING: Negative pressures at 16:00:00 hrs.
  
  WARNING: Negative pressures at 17:00:00 hrs.
  
  WARNING: Negative pressures at 18:00:00 hrs.
  
  WARNING: Negative pressures at 19:00:00 hrs.
  
  WARNING: Negative pressures at 20:00:00 hrs.
  
  WARNING: Negative pressures at 21:00:00 hrs.
  
  WARNING: Negative pressures at 22:00:00 hrs.
  
  WARNING: Negative pressures at 23:00:00 hrs.
  
  WARNING: Negative pressures at 24:00:00 hrs.
  
  WARNING: Negative pressures at 25:00:00 hrs.
  
  WARNING: Negative pressures at 26:00:00 hrs.
  
  WARNING: Negative pressures at 27:00:00 hrs.
  
  WARNING: Negative pressures at 28:00:00 hrs.
  
  WARNING: Negative pressures at 0:00:00 hrs.
  
  WARNING: Negative pressures at 1:00:00 hrs.
  
  WARNING: Negative pressures at 2:00:00 hrs.
  
  WARNING: Negative pressures at 3:00:00 hrs.
  
  WARNING: Negative pressures at 4:00:00 hrs.
  
  WARNING: Negative pressures at 5:00:00 hrs.
  
  WARNING: Negative pressures at 6:00:00 hrs.
  
  WARNING: Negative pressures at 7:00:00 hrs.
  
  WARNING: Negative pressures at 8:00:00 hrs.
  
  WARNING: Negative pressures at 9:00:00 hrs.
  
  WARNING: Negative pressures at 10:00:00 hrs.
  
  WARNING: Negative pressures at 11:00:00 hrs.
  
  WARNING: Negative pressures at 12:00:00 hrs.
  
  WARNING: Negative pressures at 13:00:00 hrs.
  
  WARNING: Negative pressures at 14:00:00 hrs.
  
  WARNING: Negative pressures at 15:00:00 hrs.
  
  WARNING: Negative pressures at 16:00:00 hrs.
  
  WARNING: Negative pressures at 17:00:00 hrs.
  
  WARNING: Negative pressures at 18:00:00 hrs.
  
  WARNING: Negative pressures at 19:00:00 hrs.
  
  WARNING: Negative pressures at 20:00:00 hrs.
  
  WARNING: Negative pressures at 21:00:00 hrs.
  
  WARNING: Negative pressures at 22:00:00 hrs.
  
  WARNING: Negative pressures at 23:00:00 hrs.
  
  WARNING: Negative pressures at 24:00:00 hrs.
  
  WARNING: Negative pressures at 25:00:00 hrs.
  
  WARNING: Negative pressures at 26:00:00 hrs.
  
  WARNING: Negative pressures at 27:00:00 hrs.
  
  WARNING: Negative pressures at 28:00:00 hrs.
  
  WARNING: Negative pressures at 0:00:00 hrs.
  
  WARNING: Negative pressures at 1:00:00 hrs.
  
  WARNING: Negative pressures at 2:00:00 hrs.
  
  WARNING: Negative pressures at 3:00:00 hrs.
  
  WARNING: Negative pressures at 4:00:00 hrs.
  
  WARNING: Negative pressures at 5:00:00 hrs.
  
  WARNING: Negative pressures at 6:00:00 hrs.
  
  WARNING: Negative pressures at 7:00:00 hrs.
  
  WARNING: Negative pressures at 8:00:00 hrs.
  
  WARNING: Negative pressures at 9:00:00 hrs.
  
  WARNING: Negative pressures at 10:00:00 hrs.
  
  WARNING: Negative pressures at 11:00:00 hrs.
  
  WARNING: Negative pressures at 12:00:00 hrs.
  
  WARNING: Negative pressures at 13:00:00 hrs.
  
  WARNING: Negative pressures at 14:00:00 hrs.
  
  WARNING: Negative pressures at 15:00:00 hrs.
  
  WARNING: Negative pressures at 16:00:00 hrs.
  
  WARNING: Negative pressures at 17:00:00 hrs.
  
  WARNING: Negative pressures at 18:00:00 hrs.
  
  WARNING: Negative pressures at 19:00:00 hrs.
  
  WARNING: Negative pressures at 20:00:00 hrs.
  
  WARNING: Negative pressures at 21:00:00 hrs.
  
  WARNING: Negative pressures at 22:00:00 hrs.
  
  WARNING: Negative pressures at 23:00:00 hrs.
  
  WARNING: Negative pressures at 24:00:00 hrs.
  
  WARNING: Negative pressures at 25:00:00 hrs.
  
  WARNING: Negative pressures at 26:00:00 hrs.
  
  WARNING: Negative pressures at 27:00:00 hrs.
  
  WARNING: Negative pressures at 28:00:00 hrs.
  
  WARNING: Negative pressures at 0:00:00 hrs.
  
  WARNING: Negative pressures at 1:00:00 hrs.
  
  WARNING: Negative pressures at 2:00:00 hrs.
  
  WARNING: Negative pressures at 3:00:00 hrs.
  
  WARNING: Negative pressures at 4:00:00 hrs.
  
  WARNING: Negative pressures at 5:00:00 hrs.
  
  WARNING: Negative pressures at 6:00:00 hrs.
  
  WARNING: Negative pressures at 7:00:00 hrs.
  
  WARNING: Negative pressures at 8:00:00 hrs.
  
  WARNING: Negative pressures at 9:00:00 hrs.
  
  WARNING: Negative pressures at 10:00:00 hrs.
  
  WARNING: Negative pressures at 11:00:00 hrs.
  
  WARNING: Negative pressures at 12:00:00 hrs.
  
  WARNING: Negative pressures at 13:00:00 hrs.
  
  WARNING: Negative pressures at 14:00:00 hrs.
  
  WARNING: Negative pressures at 15:00:00 hrs.
  
  WARNING: Negative pressures at 16:00:00 hrs.
  
  WARNING: Negative pressures at 17:00:00 hrs.
  
  WARNING: Negative pressures at 18:00:00 hrs.
  
  WARNING: Negative pressures at 19:00:00 hrs.
  
  WARNING: Negative pressures at 20:00:00 hrs.
  
  WARNING: Negative pressures at 21:00:00 hrs.
  
  WARNING: Negative pressures at 22:00:00 hrs.
  
  WARNING: Negative pressures at 23:00:00 hrs.
  
  WARNING: Negative pressures at 24:00:00 hrs.
  
  WARNING: Negative pressures at 25:00:00 hrs.
  
  WARNING: Negative pressures at 26:00:00 hrs.
  
  WARNING: Negative pressures at 27:00:00 hrs.
  
  WARNING: Negative pressures at 28:00:00 hrs.
  
  WARNING: Negative pressures at 0:00:00 hrs.
  
  WARNING: Negative pressures at 1:00:00 hrs.
  
  WARNING: Negative pressures at 2:00:00 hrs.
  
  WARNING: Negative pressures at 3:00:00 hrs.
  
  WARNING: Negative pressures at 4:00:00 hrs.
  
  WARNING: Negative pressures at 5:00:00 hrs.
  
  WARNING: Negative pressures at 6:00:00 hrs.
  
  WARNING: Negative pressures at 7:00:00 hrs.
  
  WARNING: Negative pressures at 8:00:00 hrs.
  
  WARNING: Negative pressures at 9:00:00 hrs.
  
  WARNING: Negative pressures at 10:00:00 hrs.
  
  WARNING: Negative pressures at 11:00:00 hrs.
  
  WARNING: Negative pressures at 12:00:00 hrs.
  
  WARNING: Negative pressures at 13:00:00 hrs.
  
  WARNING: Negative pressures at 14:00:00 hrs.
  
  WARNING: Negative pressures at 15:00:00 hrs.
  
  WARNING: Negative pressures at 16:00:00 hrs.
  
  WARNING: Negative pressures at 17:00:00 hrs.
  
  WARNING: Negative pressures at 18:00:00 hrs.
  
  WARNING: Negative pressures at 19:00:00 hrs.
  
  WARNING: Negative pressures at 20:00:00 hrs.
  
  WARNING: Negative pressures at 21:00:00 hrs.
  
  WARNING: Negative pressures at 22:00:00 hrs.
  
  WARNING: Negative pressures at 23:00:00 hrs.
  
  WARNING: Negative pressures at 24:00:00 hrs.
  
  WARNING: Negative pressures at 25:00:00 hrs.
  
  WARNING: Negative pressures at 26:00:00 hrs.
  
  WARNING: Negative pressures at 27:00:00 hrs.
  
  WARNING: Negative pressures at 28:00:00 hrs.
  
  WARNING: Negative pressures at 0:00:00 hrs.
  
  WARNING: Negative pressures at 1:00:00 hrs.
  
  WARNING: Negative pressures at 2:00:00 hrs.
  
  WARNING: Negative pressures at 3:00:00 hrs.
  
  WARNING: Negative pressures at 4:00:00 hrs.
  
  WARNING: Negative pressures at 5:00:00 hrs.
  
  WARNING: Negative pressures at 6:00:00 hrs.
  
  WARNING: Negative pressures at 7:00:00 hrs.
  
  WARNING: Negative pressures at 8:00:00 hrs.
  
  WARNING: Negative pressures at 9:00:00 hrs.
  
  WARNING: Negative pressures at 10:00:00 hrs.
  
  WARNING: Negative pressures at 11:00:00 hrs.
  
  WARNING: Negative pressures at 12:00:00 hrs.
  
  WARNING: Negative pressures at 13:00:00 hrs.
  
  WARNING: Negative pressures at 14:00:00 hrs.
  
  WARNING: Negative pressures at 15:00:00 hrs.
  
  WARNING: Negative pressures at 16:00:00 hrs.
  
  WARNING: Negative pressures at 17:00:00 hrs.
  
  WARNING: Negative pressures at 18:00:00 hrs.
  
  WARNING: Negative pressures at 19:00:00 hrs.
  
  WARNING: Negative pressures at 20:00:00 hrs.
  
  WARNING: Negative pressures at 21:00:00 hrs.
  
  WARNING: Negative pressures at 22:00:00 hrs.
  
  WARNING: Negative pressures at 23:00:00 hrs.
  
  WARNING: Negative pressures at 24:00:00 hrs.
  
  WARNING: Negative pressures at 25:00:00 hrs.
  
  WARNING: Negative pressures at 26:00:00 hrs.
  
  WARNING: Negative pressures at 27:00:00 hrs.
  
  WARNING: Negative pressures at 28:00:00 hrs.
  
  WARNING: Negative pressures at 0:00:00 hrs.
  
  WARNING: Negative pressures at 1:00:00 hrs.
  
  WARNING: Negative pressures at 2:00:00 hrs.
  
  WARNING: Negative pressures at 3:00:00 hrs.
  
  WARNING: Negative pressures at 4:00:00 hrs.
  
  WARNING: Negative pressures at 5:00:00 hrs.
  
  WARNING: Negative pressures at 6:00:00 hrs.
  
  WARNING: Negative pressures at 7:00:00 hrs.
  
  WARNING: Negative pressures at 8:00:00 hrs.
  
  WARNING: Negative pressures at 9:00:00 hrs.
  
  WARNING: Negative pressures at 10:00:00 hrs.
  
  WARNING: Negative pressures at 11:00:00 hrs.
  
  WARNING: Negative pressures at 12:00:00 hrs.
  
  WARNING: Negative pressures at 13:00:00 hrs.
  
  WARNING: Negative pressures at 14:00:00 hrs.
  
  WARNING: Negative pressures at 15:00:00 hrs.
  
  WARNING: Negative pressures at 16:00:00 hrs.
  
  WARNING: Negative pressures at 17:00:00 hrs.
  
  WARNING: Negative pressures at 18:00:00 hrs.
  
  WARNING: Negative pressures at 19:00:00 hrs.
  
  WARNING: Negative pressures at 20:00:00 hrs.
  
  WARNING: Negative pressures at 21:00:00 hrs.
  
  WARNING: Negative pressures at 22:00:00 hrs.
  
  WARNING: Negative pressures at 23:00:00 hrs.
  
  WARNING: Negative pressures at 24:00:00 hrs.
  
  WARNING: Negative pressures at 25:00:00 hrs.
  
  WARNING: Negative pressures at 26:00:00 hrs.
  
  WARNING: Negative pressures at 27:00:00 hrs.
  
  WARNING: Negative pressures at 28:00:00 hrs.
  
  WARNING: Negative pressures at 0:00:00 hrs.
  
  WARNING: Negative pressures at 1:00:00 hrs.
  
  WARNING: Negative pressures at 2:00:00 hrs.
  
  WARNING: Negative pressures at 3:00:00 hrs.
  
  WARNING: Negative pressures at 4:00:00 hrs.
  
  WARNING: Negative pressures at 5:00:00 hrs.
  
  WARNING: Negative pressures at 6:00:00 hrs.
  
  WARNING: Negative pressures at 7:00:00 hrs.
  
  WARNING: Negative pressures at 8:00:00 hrs.
  
  WARNING: Negative pressures at 9:00:00 hrs.
  
  WARNING: Negative pressures at 10:00:00 hrs.
  
  WARNING: Negative pressures at 11:00:00 hrs.
  
  WARNING: Negative pressures at 12:00:00 hrs.
  
  WARNING: Negative pressures at 13:00:00 hrs.
  
  WARNING: Negative pressures at 14:00:00 hrs.
  
  WARNING: Negative pressures at 15:00:00 hrs.
  
  WARNING: Negative pressures at 16:00:00 hrs.
  
  WARNING: Negative pressures at 17:00:00 hrs.
  
  WARNING: Negative pressures at 18:00:00 hrs.
  
  WARNING: Negative pressures at 19:00:00 hrs.
  
  WARNING: Negative pressures at 20:00:00 hrs.
  
  WARNING: Negative pressures at 21:00:00 hrs.
  
  WARNING: Negative pressures at 22:00:00 hrs.
  
  WARNING: Negative pressures at 23:00:00 hrs.
  
  WARNING: Negative pressures at 24:00:00 hrs.
  
  WARNING: Negative pressures at 25:00:00 hrs.
  
  WARNING: Negative pressures at 26:00:00 hrs.
  
  WARNING: Negative pressures at 27:00:00 hrs.
  
  WARNING: Negative pressures at 28:00:00 hrs.
  
  WARNING: Negative pressures at 0:00:00 hrs.
  
  WARNING: Negative pressures at 1:00:00 hrs.
  
  WARNING: Negative pressures at 2:00:00 hrs.
  
  WARNING: Negative pressures at 3:00:00 hrs.
  
  WARNING: Negative pressures at 4:00:00 hrs.
  
  WARNING: Negative pressures at 5:00:00 hrs.
  
  WARNING: Negative pressures at 6:00:00 hrs.
  
  WARNING: Negative pressures at 7:00:00 hrs.
  
  WARNING: Negative pressures at 8:00:00 hrs.
  
  WARNING: Negative pressures at 9:00:00 hrs.
  
  WARNING: Negative pressures at 10:00:00 hrs.
  
  WARNING: Negative pressures at 11:00:00 hrs.
  
  WARNING: Negative pressures at 12:00:00 hrs.
  
  WARNING: Negative pressures at 13:00:00 hrs.
  
  WARNING: Negative pressures at 14:00:00 hrs.
  
  WARNING: Negative pressures at 15:00:00 hrs.
  
  WARNING: Negative pressures at 16:00:00 hrs.
  
  WARNING: Negative pressures at 17:00:00 hrs.
  
  WARNING: Negative pressures at 18:00:00 hrs.
  
  WARNING: Negative pressures at 19:00:00 hrs.
  
  WARNING: Negative pressures at 20:00:00 hrs.
  
  WARNING: Negative pressures at 21:00:00 hrs.
  
  WARNING: Negative pressures at 22:00:00 hrs.
  
  WARNING: Negative pressures at 23:00:00 hrs.
  
  WARNING: Negative pressures at 24:00:00 hrs.
  
  WARNING: Negative pressures at 25:00:00 hrs.
  
  WARNING: Negative pressures at 26:00:00 hrs.
  
  WARNING: Negative pressures at 27:00:00 hrs.
  
  WARNING: Negative pressures at 28:00:00 hrs.
  
  WARNING: Negative pressures at 0:00:00 hrs.
  
  WARNING: Negative pressures at 1:00:00 hrs.
  
  WARNING: Negative pressures at 2:00:00 hrs.
  
  WARNING: Negative pressures at 3:00:00 hrs.
  
  WARNING: Negative pressures at 4:00:00 hrs.
  
  WARNING: Negative pressures at 5:00:00 hrs.
  
  WARNING: Negative pressures at 6:00:00 hrs.
  
  WARNING: Negative pressures at 7:00:00 hrs.
  
  WARNING: Negative pressures at 8:00:00 hrs.
  
  WARNING: Negative pressures at 9:00:00 hrs.
  
  WARNING: Negative pressures at 10:00:00 hrs.
  
  WARNING: Negative pressures at 11:00:00 hrs.
  
  WARNING: Negative pressures at 12:00:00 hrs.
  
  WARNING: Negative pressures at 13:00:00 hrs.
  
  WARNING: Negative pressures at 14:00:00 hrs.
  
  WARNING: Negative pressures at 15:00:00 hrs.
  
  WARNING: Negative pressures at 16:00:00 hrs.
  
  WARNING: Negative pressures at 17:00:00 hrs.
  
  WARNING: Negative pressures at 18:00:00 hrs.
  
  WARNING: Negative pressures at 19:00:00 hrs.
  
  WARNING: Negative pressures at 20:00:00 hrs.
  
  WARNING: Negative pressures at 21:00:00 hrs.
  
  WARNING: Negative pressures at 22:00:00 hrs.
  
  WARNING: Negative pressures at 23:00:00 hrs.
  
  WARNING: Negative pressures at 24:00:00 hrs.
  
  WARNING: Negative pressures at 25:00:00 hrs.
  
  WARNING: Negative pressures at 26:00:00 hrs.
  
  WARNING: Negative pressures at 27:00:00 hrs.
  
  WARNING: Negative pressures at 28:00:00 hrs.
  
  WARNING: Negative pressures at 0:00:00 hrs.
  
  WARNING: Negative pressures at 1:00:00 hrs.
  
  WARNING: Negative pressures at 2:00:00 hrs.
  
  WARNING: Negative pressures at 3:00:00 hrs.
  
  WARNING: Negative pressures at 4:00:00 hrs.
  
  WARNING: Negative pressures at 5:00:00 hrs.
  
  WARNING: Negative pressures at 6:00:00 hrs.
  
  WARNING: Negative pressures at 7:00:00 hrs.
  
  WARNING: Negative pressures at 8:00:00 hrs.
  
  WARNING: Negative pressures at 9:00:00 hrs.
  
  WARNING: Negative pressures at 10:00:00 hrs.
  
  WARNING: Negative pressures at 11:00:00 hrs.
  
  WARNING: Negative pressures at 12:00:00 hrs.
  
  WARNING: Negative pressures at 13:00:00 hrs.
  
  WARNING: Negative pressures at 14:00:00 hrs.
  
  WARNING: Negative pressures at 15:00:00 hrs.
  
  WARNING: Negative pressures at 16:00:00 hrs.
  
  WARNING: Negative pressures at 17:00:00 hrs.
  
  WARNING: Negative pressures at 18:00:00 hrs.
  
  WARNING: Negative pressures at 19:00:00 hrs.
  
  WARNING: Negative pressures at 20:00:00 hrs.
  
  WARNING: Negative pressures at 21:00:00 hrs.
  
  WARNING: Negative pressures at 22:00:00 hrs.
  
  WARNING: Negative pressures at 23:00:00 hrs.
  
  WARNING: Negative pressures at 24:00:00 hrs.
  
  WARNING: Negative pressures at 25:00:00 hrs.
  
  WARNING: Negative pressures at 26:00:00 hrs.
  
  WARNING: Negative pressures at 27:00:00 hrs.
  
  WARNING: Negative pressures at 28:00:00 hrs.
  
  WARNING: Negative pressures at 0:00:00 hrs.
  
  WARNING: Negative pressures at 1:00:00 hrs.
  
  WARNING: Negative pressures at 2:00:00 hrs.
  
  WARNING: Negative pressures at 3:00:00 hrs.
  
  WARNING: Negative pressures at 4:00:00 hrs.
  
  WARNING: Negative pressures at 5:00:00 hrs.
  
  WARNING: Negative pressures at 6:00:00 hrs.
  
  WARNING: Negative pressures at 7:00:00 hrs.
  
  WARNING: Negative pressures at 8:00:00 hrs.
  
  WARNING: Negative pressures at 9:00:00 hrs.
  
  WARNING: Negative pressures at 10:00:00 hrs.
  
  WARNING: Negative pressures at 11:00:00 hrs.
  
  WARNING: Negative pressures at 12:00:00 hrs.
  
  WARNING: Negative pressures at 13:00:00 hrs.
  
  WARNING: Negative pressures at 14:00:00 hrs.
  
  WARNING: Negative pressures at 15:00:00 hrs.
  
  WARNING: Negative pressures at 16:00:00 hrs.
  
  WARNING: Negative pressures at 17:00:00 hrs.
  
  WARNING: Negative pressures at 18:00:00 hrs.
  
  WARNING: Negative pressures at 19:00:00 hrs.
  
  WARNING: Negative pressures at 20:00:00 hrs.
  
  WARNING: Negative pressures at 21:00:00 hrs.
  
  WARNING: Negative pressures at 22:00:00 hrs.
  
  WARNING: Negative pressures at 23:00:00 hrs.
  
  WARNING: Negative pressures at 24:00:00 hrs.
  
  WARNING: Negative pressures at 25:00:00 hrs.
  
  WARNING: Negative pressures at 26:00:00 hrs.
  
  WARNING: Negative pressures at 27:00:00 hrs.
  
  WARNING: Negative pressures at 28:00:00 hrs.
  
  WARNING: Negative pressures at 0:00:00 hrs.
  
  WARNING: Negative pressures at 1:00:00 hrs.
  
  WARNING: Negative pressures at 2:00:00 hrs.
  
  WARNING: Negative pressures at 3:00:00 hrs.
  
  WARNING: Negative pressures at 4:00:00 hrs.
  
  WARNING: Negative pressures at 5:00:00 hrs.
  
  WARNING: Negative pressures at 6:00:00 hrs.
  
  WARNING: Negative pressures at 7:00:00 hrs.
  
  WARNING: Negative pressures at 8:00:00 hrs.
  
  WARNING: Negative pressures at 9:00:00 hrs.
  
  WARNING: Negative pressures at 10:00:00 hrs.
  
  WARNING: Negative pressures at 11:00:00 hrs.
  
  WARNING: Negative pressures at 12:00:00 hrs.
  
  WARNING: Negative pressures at 13:00:00 hrs.
  
  WARNING: Negative pressures at 14:00:00 hrs.
  
  WARNING: Negative pressures at 15:00:00 hrs.
  
  WARNING: Negative pressures at 16:00:00 hrs.
  
  WARNING: Negative pressures at 17:00:00 hrs.
  
  WARNING: Negative pressures at 18:00:00 hrs.
  
  WARNING: Negative pressures at 19:00:00 hrs.
  
  WARNING: Negative pressures at 20:00:00 hrs.
  
  WARNING: Negative pressures at 21:00:00 hrs.
  
  WARNING: Negative pressures at 22:00:00 hrs.
  
  WARNING: Negative pressures at 23:00:00 hrs.
  
  WARNING: Negative pressures at 24:00:00 hrs.
  
  WARNING: Negative pressures at 25:00:00 hrs.
  
  WARNING: Negative pressures at 26:00:00 hrs.
  
  WARNING: Negative pressures at 27:00:00 hrs.
  
  WARNING: Negative pressures at 28:00:00 hrs.
  
  WARNING: Negative pressures at 0:00:00 hrs.
  
  WARNING: Negative pressures at 1:00:00 hrs.
  
  WARNING: Negative pressures at 2:00:00 hrs.
  
  WARNING: Negative pressures at 3:00:00 hrs.
  
  WARNING: Negative pressures at 4:00:00 hrs.
  
  WARNING: Negative pressures at 5:00:00 hrs.
  
  WARNING: Negative pressures at 6:00:00 hrs.
  
  WARNING: Negative pressures at 7:00:00 hrs.
  
  WARNING: Negative pressures at 8:00:00 hrs.
  
  WARNING: Negative pressures at 9:00:00 hrs.
  
  WARNING: Negative pressures at 10:00:00 hrs.
  
  WARNING: Negative pressures at 11:00:00 hrs.
  
  WARNING: Negative pressures at 12:00:00 hrs.
  
  WARNING: Negative pressures at 13:00:00 hrs.
  
  WARNING: Negative pressures at 14:00:00 hrs.
  
  WARNING: Negative pressures at 15:00:00 hrs.
  
  WARNING: Negative pressures at 16:00:00 hrs.
  
  WARNING: Negative pressures at 17:00:00 hrs.
  
  WARNING: Negative pressures at 18:00:00 hrs.
  
  WARNING: Negative pressures at 19:00:00 hrs.
  
  WARNING: Negative pressures at 20:00:00 hrs.
  
  WARNING: Negative pressures at 21:00:00 hrs.
  
  WARNING: Negative pressures at 22:00:00 hrs.
  
  WARNING: Negative pressures at 23:00:00 hrs.
  
  WARNING: Negative pressures at 24:00:00 hrs.
  
  WARNING: Negative pressures at 25:00:00 hrs.
  
  WARNING: Negative pressures at 26:00:00 hrs.
  
  WARNING: Negative pressures at 27:00:00 hrs.
  
  WARNING: Negative pressures at 28:00:00 hrs.
  
  WARNING: Negative pressures at 0:00:00 hrs.
  
  WARNING: Negative pressures at 1:00:00 hrs.
  
  WARNING: Negative pressures at 2:00:00 hrs.
  
  WARNING: Negative pressures at 3:00:00 hrs.
  
  WARNING: Negative pressures at 4:00:00 hrs.
  
  WARNING: Negative pressures at 5:00:00 hrs.
  
  WARNING: Negative pressures at 6:00:00 hrs.
  
  WARNING: Negative pressures at 7:00:00 hrs.
  
  WARNING: Negative pressures at 8:00:00 hrs.
  
  WARNING: Negative pressures at 9:00:00 hrs.
  
  WARNING: Negative pressures at 10:00:00 hrs.
  
  WARNING: Negative pressures at 11:00:00 hrs.
  
  WARNING: Negative pressures at 12:00:00 hrs.
  
  WARNING: Negative pressures at 13:00:00 hrs.
  
  WARNING: Negative pressures at 14:00:00 hrs.
  
  WARNING: Negative pressures at 15:00:00 hrs.
  
  WARNING: Negative pressures at 16:00:00 hrs.
  
  WARNING: Negative pressures at 17:00:00 hrs.
  
  WARNING: Negative pressures at 18:00:00 hrs.
  
  WARNING: Negative pressures at 19:00:00 hrs.
  
  WARNING: Negative pressures at 20:00:00 hrs.
  
  WARNING: Negative pressures at 21:00:00 hrs.
  
  WARNING: Negative pressures at 22:00:00 hrs.
  
  WARNING: Negative pressures at 23:00:00 hrs.
  
  WARNING: Negative pressures at 24:00:00 hrs.
  
  WARNING: Negative pressures at 25:00:00 hrs.
  
  WARNING: Negative pressures at 26:00:00 hrs.
  
  WARNING: Negative pressures at 27:00:00 hrs.
  
  WARNING: Negative pressures at 28:00:00 hrs.
  
  WARNING: Negative pressures at 0:00:00 hrs.
  
  WARNING: Negative pressures at 1:00:00 hrs.
  
  WARNING: Negative pressures at 2:00:00 hrs.
  
  WARNING: Negative pressures at 3:00:00 hrs.
  
  WARNING: Negative pressures at 4:00:00 hrs.
  
  WARNING: Negative pressures at 5:00:00 hrs.
  
  WARNING: Negative pressures at 6:00:00 hrs.
  
  WARNING: Negative pressures at 7:00:00 hrs.
  
  WARNING: Negative pressures at 8:00:00 hrs.
  
  WARNING: Negative pressures at 9:00:00 hrs.
  
  WARNING: Negative pressures at 10:00:00 hrs.
  
  WARNING: Negative pressures at 11:00:00 hrs.
  
  WARNING: Negative pressures at 12:00:00 hrs.
  
  WARNING: Negative pressures at 13:00:00 hrs.
  
  WARNING: Negative pressures at 14:00:00 hrs.
  
  WARNING: Negative pressures at 15:00:00 hrs.
  
  WARNING: Negative pressures at 16:00:00 hrs.
  
  WARNING: Negative pressures at 17:00:00 hrs.
  
  WARNING: Negative pressures at 18:00:00 hrs.
  
  WARNING: Negative pressures at 19:00:00 hrs.
  
  WARNING: Negative pressures at 20:00:00 hrs.
  
  WARNING: Negative pressures at 21:00:00 hrs.
  
  WARNING: Negative pressures at 22:00:00 hrs.
  
  WARNING: Negative pressures at 23:00:00 hrs.
  
  WARNING: Negative pressures at 24:00:00 hrs.
  
  WARNING: Negative pressures at 25:00:00 hrs.
  
  WARNING: Negative pressures at 26:00:00 hrs.
  
  WARNING: Negative pressures at 27:00:00 hrs.
  
  WARNING: Negative pressures at 28:00:00 hrs.
  
  WARNING: Negative pressures at 0:00:00 hrs.
  
  WARNING: Negative pressures at 1:00:00 hrs.
  
  WARNING: Negative pressures at 2:00:00 hrs.
  
  WARNING: Negative pressures at 3:00:00 hrs.
  
  WARNING: Negative pressures at 4:00:00 hrs.
  
  WARNING: Negative pressures at 5:00:00 hrs.
  
  WARNING: Negative pressures at 6:00:00 hrs.
  
  WARNING: Negative pressures at 7:00:00 hrs.
  
  WARNING: Negative pressures at 8:00:00 hrs.
  
  WARNING: Negative pressures at 9:00:00 hrs.
  
  WARNING: Negative pressures at 10:00:00 hrs.
  
  WARNING: Negative pressures at 11:00:00 hrs.
  
  WARNING: Negative pressures at 12:00:00 hrs.
  
  WARNING: Negative pressures at 13:00:00 hrs.
  
  WARNING: Negative pressures at 14:00:00 hrs.
  
  WARNING: Negative pressures at 15:00:00 hrs.
  
  WARNING: Negative pressures at 16:00:00 hrs.
  
  WARNING: Negative pressures at 17:00:00 hrs.
  
  WARNING: Negative pressures at 18:00:00 hrs.
  
  WARNING: Negative pressures at 19:00:00 hrs.
  
  WARNING: Negative pressures at 20:00:00 hrs.
  
  WARNING: Negative pressures at 21:00:00 hrs.
  
  WARNING: Negative pressures at 22:00:00 hrs.
  
  WARNING: Negative pressures at 23:00:00 hrs.
  
  WARNING: Negative pressures at 24:00:00 hrs.
  
  WARNING: Negative pressures at 25:00:00 hrs.
  
  WARNING: Negative pressures at 26:00:00 hrs.
  
  WARNING: Negative pressures at 27:00:00 hrs.
  
  WARNING: Negative pressures at 28:00:00 hrs.
  
  WARNING: Negative pressures at 0:00:00 hrs.
  
  WARNING: Negative pressures at 1:00:00 hrs.
  
  WARNING: Negative pressures at 2:00:00 hrs.
  
  WARNING: Negative pressures at 3:00:00 hrs.
  
  WARNING: Negative pressures at 4:00:00 hrs.
  
  WARNING: Negative pressures at 5:00:00 hrs.
  
  WARNING: Negative pressures at 6:00:00 hrs.
  
  WARNING: Negative pressures at 7:00:00 hrs.
  
  WARNING: Negative pressures at 8:00:00 hrs.
  
  WARNING: Negative pressures at 9:00:00 hrs.
  
  WARNING: Negative pressures at 10:00:00 hrs.
  
  WARNING: Negative pressures at 11:00:00 hrs.
  
  WARNING: Negative pressures at 12:00:00 hrs.
  
  WARNING: Negative pressures at 13:00:00 hrs.
  
  WARNING: Negative pressures at 14:00:00 hrs.
  
  WARNING: Negative pressures at 15:00:00 hrs.
  
  WARNING: Negative pressures at 16:00:00 hrs.
  
  WARNING: Negative pressures at 17:00:00 hrs.
  
  WARNING: Negative pressures at 18:00:00 hrs.
  
  WARNING: Negative pressures at 19:00:00 hrs.
  
  WARNING: Negative pressures at 20:00:00 hrs.
  
  WARNING: Negative pressures at 21:00:00 hrs.
  
  WARNING: Negative pressures at 22:00:00 hrs.
  
  WARNING: Negative pressures at 23:00:00 hrs.
  
  WARNING: Negative pressures at 24:00:00 hrs.
  
  WARNING: Negative pressures at 25:00:00 hrs.
  
  WARNING: Negative pressures at 26:00:00 hrs.
  
  WARNING: Negative pressures at 27:00:00 hrs.
  
  WARNING: Negative pressures at 28:00:00 hrs.
  
  WARNING: Negative pressures at 0:00:00 hrs.
  
  WARNING: Negative pressures at 1:00:00 hrs.
  
  WARNING: Negative pressures at 2:00:00 hrs.
  
  WARNING: Negative pressures at 3:00:00 hrs.
  
  WARNING: Negative pressures at 4:00:00 hrs.
  
  WARNING: Negative pressures at 5:00:00 hrs.
  
  WARNING: Negative pressures at 6:00:00 hrs.
  
  WARNING: Negative pressures at 7:00:00 hrs.
  
  WARNING: Negative pressures at 8:00:00 hrs.
  
  WARNING: Negative pressures at 9:00:00 hrs.
  
  WARNING: Negative pressures at 10:00:00 hrs.
  
  WARNING: Negative pressures at 11:00:00 hrs.
  
  WARNING: Negative pressures at 12:00:00 hrs.
  
  WARNING: Negative pressures at 13:00:00 hrs.
  
  WARNING: Negative pressures at 14:00:00 hrs.
  
  WARNING: Negative pressures at 15:00:00 hrs.
  
  WARNING: Negative pressures at 16:00:00 hrs.
  
  WARNING: Negative pressures at 17:00:00 hrs.
  
  WARNING: Negative pressures at 18:00:00 hrs.
  
  WARNING: Negative pressures at 19:00:00 hrs.
  
  WARNING: Negative pressures at 20:00:00 hrs.
  
  WARNING: Negative pressures at 21:00:00 hrs.
  
  WARNING: Negative pressures at 22:00:00 hrs.
  
  WARNING: Negative pressures at 23:00:00 hrs.
  
  WARNING: Negative pressures at 24:00:00 hrs.
  
  WARNING: Negative pressures at 25:00:00 hrs.
  
  WARNING: Negative pressures at 26:00:00 hrs.
  
  WARNING: Negative pressures at 27:00:00 hrs.
  
  WARNING: Negative pressures at 28:00:00 hrs.
  
  WARNING: Negative pressures at 0:00:00 hrs.
  
  WARNING: Negative pressures at 1:00:00 hrs.
  
  WARNING: Negative pressures at 2:00:00 hrs.
  
  WARNING: Negative pressures at 3:00:00 hrs.
  
  WARNING: Negative pressures at 4:00:00 hrs.
  
  WARNING: Negative pressures at 5:00:00 hrs.
  
  WARNING: Negative pressures at 6:00:00 hrs.
  
  WARNING: Negative pressures at 7:00:00 hrs.
  
  WARNING: Negative pressures at 8:00:00 hrs.
  
  WARNING: Negative pressures at 9:00:00 hrs.
  
  WARNING: Negative pressures at 10:00:00 hrs.
  
  WARNING: Negative pressures at 11:00:00 hrs.
  
  WARNING: Negative pressures at 12:00:00 hrs.
  
  WARNING: Negative pressures at 13:00:00 hrs.
  
  WARNING: Negative pressures at 14:00:00 hrs.
  
  WARNING: Negative pressures at 15:00:00 hrs.
  
  WARNING: Negative pressures at 16:00:00 hrs.
  
  WARNING: Negative pressures at 17:00:00 hrs.
  
  WARNING: Negative pressures at 18:00:00 hrs.
  
  WARNING: Negative pressures at 19:00:00 hrs.
  
  WARNING: Negative pressures at 20:00:00 hrs.
  
  WARNING: Negative pressures at 21:00:00 hrs.
  
  WARNING: Negative pressures at 22:00:00 hrs.
  
  WARNING: Negative pressures at 23:00:00 hrs.
  
  WARNING: Negative pressures at 24:00:00 hrs.
  
  WARNING: Negative pressures at 25:00:00 hrs.
  
  WARNING: Negative pressures at 26:00:00 hrs.
  
  WARNING: Negative pressures at 27:00:00 hrs.
  
  WARNING: Negative pressures at 28:00:00 hrs.
  
  WARNING: Negative pressures at 0:00:00 hrs.
  
  WARNING: Negative pressures at 1:00:00 hrs.
  
  WARNING: Negative pressures at 2:00:00 hrs.
  
  WARNING: Negative pressures at 3:00:00 hrs.
  
  WARNING: Negative pressures at 4:00:00 hrs.
  
  WARNING: Negative pressures at 5:00:00 hrs.
  
  WARNING: Negative pressures at 6:00:00 hrs.
  
  WARNING: Negative pressures at 7:00:00 hrs.
  
  WARNING: Negative pressures at 8:00:00 hrs.
  
  WARNING: Negative pressures at 9:00:00 hrs.
  
  WARNING: Negative pressures at 10:00:00 hrs.
  
  WARNING: Negative pressures at 11:00:00 hrs.
  
  WARNING: Negative pressures at 12:00:00 hrs.
  
  WARNING: Negative pressures at 13:00:00 hrs.
  
  WARNING: Negative pressures at 14:00:00 hrs.
  
  WARNING: Negative pressures at 15:00:00 hrs.
  
  WARNING: Negative pressures at 16:00:00 hrs.
  
  WARNING: Negative pressures at 17:00:00 hrs.
  
  WARNING: Negative pressures at 18:00:00 hrs.
  
  WARNING: Negative pressures at 19:00:00 hrs.
  
  WARNING: Negative pressures at 20:00:00 hrs.
  
  WARNING: Negative pressures at 21:00:00 hrs.
  
  WARNING: Negative pressures at 22:00:00 hrs.
  
  WARNING: Negative pressures at 23:00:00 hrs.
  
  WARNING: Negative pressures at 24:00:00 hrs.
  
  WARNING: Negative pressures at 25:00:00 hrs.
  
  WARNING: Negative pressures at 26:00:00 hrs.
  
  WARNING: Negative pressures at 27:00:00 hrs.
  
  WARNING: Negative pressures at 28:00:00 hrs.
  
  WARNING: Negative pressures at 0:00:00 hrs.
  
  WARNING: Negative pressures at 1:00:00 hrs.
  
  WARNING: Negative pressures at 2:00:00 hrs.
  
  WARNING: Negative pressures at 3:00:00 hrs.
  
  WARNING: Negative pressures at 4:00:00 hrs.
  
  WARNING: Negative pressures at 5:00:00 hrs.
  
  WARNING: Negative pressures at 6:00:00 hrs.
  
  WARNING: Negative pressures at 7:00:00 hrs.
  
  WARNING: Negative pressures at 8:00:00 hrs.
  
  WARNING: Negative pressures at 9:00:00 hrs.
  
  WARNING: Negative pressures at 10:00:00 hrs.
  
  WARNING: Negative pressures at 11:00:00 hrs.
  
  WARNING: Negative pressures at 12:00:00 hrs.
  
  WARNING: Negative pressures at 13:00:00 hrs.
  
  WARNING: Negative pressures at 14:00:00 hrs.
  
  WARNING: Negative pressures at 15:00:00 hrs.
  
  WARNING: Negative pressures at 16:00:00 hrs.
  
  WARNING: Negative pressures at 17:00:00 hrs.
  
  WARNING: Negative pressures at 18:00:00 hrs.
  
  WARNING: Negative pressures at 19:00:00 hrs.
  
  WARNING: Negative pressures at 20:00:00 hrs.
  
  WARNING: Negative pressures at 21:00:00 hrs.
  
  WARNING: Negative pressures at 22:00:00 hrs.
  
  WARNING: Negative pressures at 23:00:00 hrs.
  
  WARNING: Negative pressures at 24:00:00 hrs.
  
  WARNING: Negative pressures at 25:00:00 hrs.
  
  WARNING: Negative pressures at 26:00:00 hrs.
  
  WARNING: Negative pressures at 27:00:00 hrs.
  
  WARNING: Negative pressures at 28:00:00 hrs.
  
  WARNING: Negative pressures at 0:00:00 hrs.
  
  WARNING: Negative pressures at 1:00:00 hrs.
  
  WARNING: Negative pressures at 2:00:00 hrs.
  
  WARNING: Negative pressures at 3:00:00 hrs.
  
  WARNING: Negative pressures at 4:00:00 hrs.
  
  WARNING: Negative pressures at 5:00:00 hrs.
  
  WARNING: Negative pressures at 6:00:00 hrs.
  
  WARNING: Negative pressures at 7:00:00 hrs.
  
  WARNING: Negative pressures at 8:00:00 hrs.
  
  WARNING: Negative pressures at 9:00:00 hrs.
  
  WARNING: Negative pressures at 10:00:00 hrs.
  
  WARNING: Negative pressures at 11:00:00 hrs.
  
  WARNING: Negative pressures at 12:00:00 hrs.
  
  WARNING: Negative pressures at 13:00:00 hrs.
  
  WARNING: Negative pressures at 14:00:00 hrs.
  
  WARNING: Negative pressures at 15:00:00 hrs.
  
  WARNING: Negative pressures at 16:00:00 hrs.
  
  WARNING: Negative pressures at 17:00:00 hrs.
  
  WARNING: Negative pressures at 18:00:00 hrs.
  
  WARNING: Negative pressures at 19:00:00 hrs.
  
  WARNING: Negative pressures at 20:00:00 hrs.
  
  WARNING: Negative pressures at 21:00:00 hrs.
  
  WARNING: Negative pressures at 22:00:00 hrs.
  
  WARNING: Negative pressures at 23:00:00 hrs.
  
  WARNING: Negative pressures at 24:00:00 hrs.
  
  WARNING: Negative pressures at 25:00:00 hrs.
  
  WARNING: Negative pressures at 26:00:00 hrs.
  
  WARNING: Negative pressures at 27:00:00 hrs.
  
  WARNING: Negative pressures at 28:00:00 hrs.
  
  WARNING: Negative pressures at 0:00:00 hrs.
  
  WARNING: Negative pressures at 1:00:00 hrs.
  
  WARNING: Negative pressures at 2:00:00 hrs.
  
  WARNING: Negative pressures at 3:00:00 hrs.
  
  WARNING: Negative pressures at 4:00:00 hrs.
  
  WARNING: Negative pressures at 5:00:00 hrs.
  
  WARNING: Negative pressures at 6:00:00 hrs.
  
  WARNING: Negative pressures at 7:00:00 hrs.
  
  WARNING: Negative pressures at 8:00:00 hrs.
  
  WARNING: Negative pressures at 9:00:00 hrs.
  
  WARNING: Negative pressures at 10:00:00 hrs.
  
  WARNING: Negative pressures at 11:00:00 hrs.
  
  WARNING: Negative pressures at 12:00:00 hrs.
  
  WARNING: Negative pressures at 13:00:00 hrs.
  
  WARNING: Negative pressures at 14:00:00 hrs.
  
  WARNING: Negative pressures at 15:00:00 hrs.
  
  WARNING: Negative pressures at 16:00:00 hrs.
  
  WARNING: Negative pressures at 17:00:00 hrs.
  
  WARNING: Negative pressures at 18:00:00 hrs.
  
  WARNING: Negative pressures at 19:00:00 hrs.
  
  WARNING: Negative pressures at 20:00:00 hrs.
  
  WARNING: Negative pressures at 21:00:00 hrs.
  
  WARNING: Negative pressures at 22:00:00 hrs.
  
  WARNING: Negative pressures at 23:00:00 hrs.
  
  WARNING: Negative pressures at 24:00:00 hrs.
  
  WARNING: Negative pressures at 25:00:00 hrs.
  
  WARNING: Negative pressures at 26:00:00 hrs.
  
  WARNING: Negative pressures at 27:00:00 hrs.
  
  WARNING: Negative pressures at 28:00:00 hrs.
  
  WARNING: Negative pressures at 0:00:00 hrs.
  
  WARNING: Negative pressures at 1:00:00 hrs.
  
  WARNING: Negative pressures at 2:00:00 hrs.
  
  WARNING: Negative pressures at 3:00:00 hrs.
  
  WARNING: Negative pressures at 4:00:00 hrs.
  
  WARNING: Negative pressures at 5:00:00 hrs.
  
  WARNING: Negative pressures at 6:00:00 hrs.
  
  WARNING: Negative pressures at 7:00:00 hrs.
  
  WARNING: Negative pressures at 8:00:00 hrs.
  
  WARNING: Negative pressures at 9:00:00 hrs.
  
  WARNING: Negative pressures at 10:00:00 hrs.
  
  WARNING: Negative pressures at 11:00:00 hrs.
  
  WARNING: Negative pressures at 12:00:00 hrs.
  
  WARNING: Negative pressures at 13:00:00 hrs.
  
  WARNING: Negative pressures at 14:00:00 hrs.
  
  WARNING: Negative pressures at 15:00:00 hrs.
  
  WARNING: Negative pressures at 16:00:00 hrs.
  
  WARNING: Negative pressures at 17:00:00 hrs.
  
  WARNING: Negative pressures at 18:00:00 hrs.
  
  WARNING: Negative pressures at 19:00:00 hrs.
  
  WARNING: Negative pressures at 20:00:00 hrs.
  
  WARNING: Negative pressures at 21:00:00 hrs.
  
  WARNING: Negative pressures at 22:00:00 hrs.
  
  WARNING: Negative pressures at 23:00:00 hrs.
  
  WARNING: Negative pressures at 24:00:00 hrs.
  
  WARNING: Negative pressures at 25:00:00 hrs.
  
  WARNING: Negative pressures at 26:00:00 hrs.
  
  WARNING: Negative pressures at 27:00:00 hrs.
  
  WARNING: Negative pressures at 28:00:00 hrs.
  
  WARNING: Negative pressures at 0:00:00 hrs.
  
  WARNING: Negative pressures at 1:00:00 hrs.
  
  WARNING: Negative pressures at 2:00:00 hrs.
  
  WARNING: Negative pressures at 3:00:00 hrs.
  
  WARNING: Negative pressures at 4:00:00 hrs.
  
  WARNING: Negative pressures at 5:00:00 hrs.
  
  WARNING: Negative pressures at 6:00:00 hrs.
  
  WARNING: Negative pressures at 7:00:00 hrs.
  
  WARNING: Negative pressures at 8:00:00 hrs.
  
  WARNING: Negative pressures at 9:00:00 hrs.
  
  WARNING: Negative pressures at 10:00:00 hrs.
  
  WARNING: Negative pressures at 11:00:00 hrs.
  
  WARNING: Negative pressures at 12:00:00 hrs.
  
  WARNING: Negative pressures at 13:00:00 hrs.
  
  WARNING: Negative pressures at 14:00:00 hrs.
  
  WARNING: Negative pressures at 15:00:00 hrs.
  
  WARNING: Negative pressures at 16:00:00 hrs.
  
  WARNING: Negative pressures at 17:00:00 hrs.
  
  WARNING: Negative pressures at 18:00:00 hrs.
  
  WARNING: Negative pressures at 19:00:00 hrs.
  
  WARNING: Negative pressures at 20:00:00 hrs.
  
  WARNING: Negative pressures at 21:00:00 hrs.
  
  WARNING: Negative pressures at 22:00:00 hrs.
  
  WARNING: Negative pressures at 23:00:00 hrs.
  
  WARNING: Negative pressures at 24:00:00 hrs.
  
  WARNING: Negative pressures at 25:00:00 hrs.
  
  WARNING: Negative pressures at 26:00:00 hrs.
  
  WARNING: Negative pressures at 27:00:00 hrs.
  
  WARNING: Negative pressures at 28:00:00 hrs.
  
  WARNING: Negative pressures at 0:00:00 hrs.
  
  WARNING: Negative pressures at 1:00:00 hrs.
  
  WARNING: Negative pressures at 2:00:00 hrs.
  
  WARNING: Negative pressures at 3:00:00 hrs.
  
  WARNING: Negative pressures at 4:00:00 hrs.
  
  WARNING: Negative pressures at 5:00:00 hrs.
  
  WARNING: Negative pressures at 6:00:00 hrs.
  
  WARNING: Negative pressures at 7:00:00 hrs.
  
  WARNING: Negative pressures at 8:00:00 hrs.
  
  WARNING: Negative pressures at 9:00:00 hrs.
  
  WARNING: Negative pressures at 10:00:00 hrs.
  
  WARNING: Negative pressures at 11:00:00 hrs.
  
  WARNING: Negative pressures at 12:00:00 hrs.
  
  WARNING: Negative pressures at 13:00:00 hrs.
  
  WARNING: Negative pressures at 14:00:00 hrs.
  
  WARNING: Negative pressures at 15:00:00 hrs.
  
  WARNING: Negative pressures at 16:00:00 hrs.
  
  WARNING: Negative pressures at 17:00:00 hrs.
  
  WARNING: Negative pressures at 18:00:00 hrs.
  
  WARNING: Negative pressures at 19:00:00 hrs.
  
  WARNING: Negative pressures at 20:00:00 hrs.
  
  WARNING: Negative pressures at 21:00:00 hrs.
  
  WARNING: Negative pressures at 22:00:00 hrs.
  
  WARNING: Negative pressures at 23:00:00 hrs.
  
  WARNING: Negative pressures at 24:00:00 hrs.
  
  WARNING: Negative pressures at 25:00:00 hrs.
  
  WARNING: Negative pressures at 26:00:00 hrs.
  
  WARNING: Negative pressures at 27:00:00 hrs.
  
  WARNING: Negative pressures at 28:00:00 hrs.
  
  WARNING: Negative pressures at 0:00:00 hrs.
  
  WARNING: Negative pressures at 1:00:00 hrs.
  
  WARNING: Negative pressures at 2:00:00 hrs.
  
  WARNING: Negative pressures at 3:00:00 hrs.
  
  WARNING: Negative pressures at 4:00:00 hrs.
  
  WARNING: Negative pressures at 5:00:00 hrs.
  
  WARNING: Negative pressures at 6:00:00 hrs.
  
  WARNING: Negative pressures at 7:00:00 hrs.
  
  WARNING: Negative pressures at 8:00:00 hrs.
  
  WARNING: Negative pressures at 9:00:00 hrs.
  
  WARNING: Negative pressures at 10:00:00 hrs.
  
  WARNING: Negative pressures at 11:00:00 hrs.
  
  WARNING: Negative pressures at 12:00:00 hrs.
  
  WARNING: Negative pressures at 13:00:00 hrs.
  
  WARNING: Negative pressures at 14:00:00 hrs.
  
  WARNING: Negative pressures at 15:00:00 hrs.
  
  WARNING: Negative pressures at 16:00:00 hrs.
  
  WARNING: Negative pressures at 17:00:00 hrs.
  
  WARNING: Negative pressures at 18:00:00 hrs.
  
  WARNING: Negative pressures at 19:00:00 hrs.
  
  WARNING: Negative pressures at 20:00:00 hrs.
  
  WARNING: Negative pressures at 21:00:00 hrs.
  
  WARNING: Negative pressures at 22:00:00 hrs.
  
  WARNING: Negative pressures at 23:00:00 hrs.
  
  WARNING: Negative pressures at 24:00:00 hrs.
  
  WARNING: Negative pressures at 25:00:00 hrs.
  
  WARNING: Negative pressures at 26:00:00 hrs.
  
  WARNING: Negative pressures at 27:00:00 hrs.
  
  WARNING: Negative pressures at 28:00:00 hrs.
  
  WARNING: Negative pressures at 0:00:00 hrs.
  
  WARNING: Negative pressures at 1:00:00 hrs.
  
  WARNING: Negative pressures at 2:00:00 hrs.
  
  WARNING: Negative pressures at 3:00:00 hrs.
  
  WARNING: Negative pressures at 4:00:00 hrs.
  
  WARNING: Negative pressures at 5:00:00 hrs.
  
  WARNING: Negative pressures at 6:00:00 hrs.
  
  WARNING: Negative pressures at 7:00:00 hrs.
  
  WARNING: Negative pressures at 8:00:00 hrs.
  
  WARNING: Negative pressures at 9:00:00 hrs.
  
  WARNING: Negative pressures at 10:00:00 hrs.
  
  WARNING: Negative pressures at 11:00:00 hrs.
  
  WARNING: Negative pressures at 12:00:00 hrs.
  
  WARNING: Negative pressures at 13:00:00 hrs.
  
  WARNING: Negative pressures at 14:00:00 hrs.
  
  WARNING: Negative pressures at 15:00:00 hrs.
  
  WARNING: Negative pressures at 16:00:00 hrs.
  
  WARNING: Negative pressures at 17:00:00 hrs.
  
  WARNING: Negative pressures at 18:00:00 hrs.
  
  WARNING: Negative pressures at 19:00:00 hrs.
  
  WARNING: Negative pressures at 20:00:00 hrs.
  
  WARNING: Negative pressures at 21:00:00 hrs.
  
  WARNING: Negative pressures at 22:00:00 hrs.
  
  WARNING: Negative pressures at 23:00:00 hrs.
  
  WARNING: Negative pressures at 24:00:00 hrs.
  
  WARNING: Negative pressures at 25:00:00 hrs.
  
  WARNING: Negative pressures at 26:00:00 hrs.
  
  WARNING: Negative pressures at 27:00:00 hrs.
  
  WARNING: Negative pressures at 28:00:00 hrs.
  
  WARNING: Negative pressures at 0:00:00 hrs.
  
  WARNING: Negative pressures at 1:00:00 hrs.
  
  WARNING: Negative pressures at 2:00:00 hrs.
  
  WARNING: Negative pressures at 3:00:00 hrs.
  
  WARNING: Negative pressures at 4:00:00 hrs.
  
  WARNING: Negative pressures at 5:00:00 hrs.
  
  WARNING: Negative pressures at 6:00:00 hrs.
  
  WARNING: Negative pressures at 7:00:00 hrs.
  
  WARNING: Negative pressures at 8:00:00 hrs.
  
  WARNING: Negative pressures at 9:00:00 hrs.
  
  WARNING: Negative pressures at 10:00:00 hrs.
  
  WARNING: Negative pressures at 11:00:00 hrs.
  
  WARNING: Negative pressures at 12:00:00 hrs.
  
  WARNING: Negative pressures at 13:00:00 hrs.
  
  WARNING: Negative pressures at 14:00:00 hrs.
  
  WARNING: Negative pressures at 15:00:00 hrs.
  
  WARNING: Negative pressures at 16:00:00 hrs.
  
  WARNING: Negative pressures at 17:00:00 hrs.
  
  WARNING: Negative pressures at 18:00:00 hrs.
  
  WARNING: Negative pressures at 19:00:00 hrs.
  
  WARNING: Negative pressures at 20:00:00 hrs.
  
  WARNING: Negative pressures at 21:00:00 hrs.
  
  WARNING: Negative pressures at 22:00:00 hrs.
  
  WARNING: Negative pressures at 23:00:00 hrs.
  
  WARNING: Negative pressures at 24:00:00 hrs.
  
  WARNING: Negative pressures at 25:00:00 hrs.
  
  WARNING: Negative pressures at 26:00:00 hrs.
  
  WARNING: Negative pressures at 27:00:00 hrs.
  
  WARNING: Negative pressures at 28:00:00 hrs.
  
  WARNING: Negative pressures at 0:00:00 hrs.
  
  WARNING: Negative pressures at 1:00:00 hrs.
  
  WARNING: Negative pressures at 2:00:00 hrs.
  
  WARNING: Negative pressures at 3:00:00 hrs.
  
  WARNING: Negative pressures at 4:00:00 hrs.
  
  WARNING: Negative pressures at 5:00:00 hrs.
  
  WARNING: Negative pressures at 6:00:00 hrs.
  
  WARNING: Negative pressures at 7:00:00 hrs.
  
  WARNING: Negative pressures at 8:00:00 hrs.
  
  WARNING: Negative pressures at 9:00:00 hrs.
  
  WARNING: Negative pressures at 10:00:00 hrs.
  
  WARNING: Negative pressures at 11:00:00 hrs.
  
  WARNING: Negative pressures at 12:00:00 hrs.
  
  WARNING: Negative pressures at 13:00:00 hrs.
  
  WARNING: Negative pressures at 14:00:00 hrs.
  
  WARNING: Negative pressures at 15:00:00 hrs.
  
  WARNING: Negative pressures at 16:00:00 hrs.
  
  WARNING: Negative pressures at 17:00:00 hrs.
  
  WARNING: Negative pressures at 18:00:00 hrs.
  
  WARNING: Negative pressures at 19:00:00 hrs.
  
  WARNING: Negative pressures at 20:00:00 hrs.
  
  WARNING: Negative pressures at 21:00:00 hrs.
  
  WARNING: Negative pressures at 22:00:00 hrs.
  
  WARNING: Negative pressures at 23:00:00 hrs.
  
  WARNING: Negative pressures at 24:00:00 hrs.
  
  WARNING: Negative pressures at 25:00:00 hrs.
  
  WARNING: Negative pressures at 26:00:00 hrs.
  
  WARNING: Negative pressures at 27:00:00 hrs.
  
  WARNING: Negative pressures at 28:00:00 hrs.
  
  WARNING: Negative pressures at 0:00:00 hrs.
  
  WARNING: Negative pressures at 1:00:00 hrs.
  
  WARNING: Negative pressures at 2:00:00 hrs.
  
  WARNING: Negative pressures at 3:00:00 hrs.
  
  WARNING: Negative pressures at 4:00:00 hrs.
  
  WARNING: Negative pressures at 5:00:00 hrs.
  
  WARNING: Negative pressures at 6:00:00 hrs.
  
  WARNING: Negative pressures at 7:00:00 hrs.
  
  WARNING: Negative pressures at 8:00:00 hrs.
  
  WARNING: Negative pressures at 9:00:00 hrs.
  
  WARNING: Negative pressures at 10:00:00 hrs.
  
  WARNING: Negative pressures at 11:00:00 hrs.
  
  WARNING: Negative pressures at 12:00:00 hrs.
  
  WARNING: Negative pressures at 13:00:00 hrs.
  
  WARNING: Negative pressures at 14:00:00 hrs.
  
  WARNING: Negative pressures at 15:00:00 hrs.
  
  WARNING: Negative pressures at 16:00:00 hrs.
  
  WARNING: Negative pressures at 17:00:00 hrs.
  
  WARNING: Negative pressures at 18:00:00 hrs.
  
  WARNING: Negative pressures at 19:00:00 hrs.
  
  WARNING: Negative pressures at 20:00:00 hrs.
  
  WARNING: Negative pressures at 21:00:00 hrs.
  
  WARNING: Negative pressures at 22:00:00 hrs.
  
  WARNING: Negative pressures at 23:00:00 hrs.
  
  WARNING: Negative pressures at 24:00:00 hrs.
  
  WARNING: Negative pressures at 25:00:00 hrs.
  
  WARNING: Negative pressures at 26:00:00 hrs.
  
  WARNING: Negative pressures at 27:00:00 hrs.
  
  WARNING: Negative pressures at 28:00:00 hrs.
  
  WARNING: Negative pressures at 0:00:00 hrs.
  
  WARNING: Negative pressures at 1:00:00 hrs.
  
  WARNING: Negative pressures at 2:00:00 hrs.
  
  WARNING: Negative pressures at 3:00:00 hrs.
  
  WARNING: Negative pressures at 4:00:00 hrs.
  
  WARNING: Negative pressures at 5:00:00 hrs.
  
  WARNING: Negative pressures at 6:00:00 hrs.
  
  WARNING: Negative pressures at 7:00:00 hrs.
  
  WARNING: Negative pressures at 8:00:00 hrs.
  
  WARNING: Negative pressures at 9:00:00 hrs.
  
  WARNING: Negative pressures at 10:00:00 hrs.
  
  WARNING: Negative pressures at 11:00:00 hrs.
  
  WARNING: Negative pressures at 12:00:00 hrs.
  
  WARNING: Negative pressures at 13:00:00 hrs.
  
  WARNING: Negative pressures at 14:00:00 hrs.
  
  WARNING: Negative pressures at 15:00:00 hrs.
  
  WARNING: Negative pressures at 16:00:00 hrs.
  
  WARNING: Negative pressures at 17:00:00 hrs.
  
  WARNING: Negative pressures at 18:00:00 hrs.
  
  WARNING: Negative pressures at 19:00:00 hrs.
  
  WARNING: Negative pressures at 20:00:00 hrs.
  
  WARNING: Negative pressures at 21:00:00 hrs.
  
  WARNING: Negative pressures at 22:00:00 hrs.
  
  WARNING: Negative pressures at 23:00:00 hrs.
  
  WARNING: Negative pressures at 24:00:00 hrs.
  
  WARNING: Negative pressures at 25:00:00 hrs.
  
  WARNING: Negative pressures at 26:00:00 hrs.
  
  WARNING: Negative pressures at 27:00:00 hrs.
  
  WARNING: Negative pressures at 28:00:00 hrs.
  
  WARNING: Negative pressures at 0:00:00 hrs.
  
  WARNING: Negative pressures at 1:00:00 hrs.
  
  WARNING: Negative pressures at 2:00:00 hrs.
  
  WARNING: Negative pressures at 3:00:00 hrs.
  
  WARNING: Negative pressures at 4:00:00 hrs.
  
  WARNING: Negative pressures at 5:00:00 hrs.
  
  WARNING: Negative pressures at 6:00:00 hrs.
  
  WARNING: Negative pressures at 7:00:00 hrs.
  
  WARNING: Negative pressures at 8:00:00 hrs.
  
  WARNING: Negative pressures at 9:00:00 hrs.
  
  WARNING: Negative pressures at 10:00:00 hrs.
  
  WARNING: Negative pressures at 11:00:00 hrs.
  
  WARNING: Negative pressures at 12:00:00 hrs.
  
  WARNING: Negative pressures at 13:00:00 hrs.
  
  WARNING: Negative pressures at 14:00:00 hrs.
  
  WARNING: Negative pressures at 15:00:00 hrs.
  
  WARNING: Negative pressures at 16:00:00 hrs.
  
  WARNING: Negative pressures at 17:00:00 hrs.
  
  WARNING: Negative pressures at 18:00:00 hrs.
  
  WARNING: Negative pressures at 19:00:00 hrs.
  
  WARNING: Negative pressures at 20:00:00 hrs.
  
  WARNING: Negative pressures at 21:00:00 hrs.
  
  WARNING: Negative pressures at 22:00:00 hrs.
  
  WARNING: Negative pressures at 23:00:00 hrs.
  
  WARNING: Negative pressures at 24:00:00 hrs.
  
  WARNING: Negative pressures at 25:00:00 hrs.
  
  WARNING: Negative pressures at 26:00:00 hrs.
  
  WARNING: Negative pressures at 27:00:00 hrs.
  
  WARNING: Negative pressures at 28:00:00 hrs.
  
  WARNING: Negative pressures at 0:00:00 hrs.
  
  WARNING: Negative pressures at 1:00:00 hrs.
  
  WARNING: Negative pressures at 2:00:00 hrs.
  
  WARNING: Negative pressures at 3:00:00 hrs.
  
  WARNING: Negative pressures at 4:00:00 hrs.
  
  WARNING: Negative pressures at 5:00:00 hrs.
  
  WARNING: Negative pressures at 6:00:00 hrs.
  
  WARNING: Negative pressures at 7:00:00 hrs.
  
  WARNING: Negative pressures at 8:00:00 hrs.
  
  WARNING: Negative pressures at 9:00:00 hrs.
  
  WARNING: Negative pressures at 10:00:00 hrs.
  
  WARNING: Negative pressures at 11:00:00 hrs.
  
  WARNING: Negative pressures at 12:00:00 hrs.
  
  WARNING: Negative pressures at 13:00:00 hrs.
  
  WARNING: Negative pressures at 14:00:00 hrs.
  
  WARNING: Negative pressures at 15:00:00 hrs.
  
  WARNING: Negative pressures at 16:00:00 hrs.
  
  WARNING: Negative pressures at 17:00:00 hrs.
  
  WARNING: Negative pressures at 18:00:00 hrs.
  
  WARNING: Negative pressures at 19:00:00 hrs.
  
  WARNING: Negative pressures at 20:00:00 hrs.
  
  WARNING: Negative pressures at 21:00:00 hrs.
  
  WARNING: Negative pressures at 22:00:00 hrs.
  
  WARNING: Negative pressures at 23:00:00 hrs.
  
  WARNING: Negative pressures at 24:00:00 hrs.
  
  WARNING: Negative pressures at 25:00:00 hrs.
  
  WARNING: Negative pressures at 26:00:00 hrs.
  
  WARNING: Negative pressures at 27:00:00 hrs.
  
  WARNING: Negative pressures at 28:00:00 hrs.
  
  WARNING: Negative pressures at 0:00:00 hrs.
  
  WARNING: Negative pressures at 1:00:00 hrs.
  
  WARNING: Negative pressures at 2:00:00 hrs.
  
  WARNING: Negative pressures at 3:00:00 hrs.
  
  WARNING: Negative pressures at 4:00:00 hrs.
  
  WARNING: Negative pressures at 5:00:00 hrs.
  
  WARNING: Negative pressures at 6:00:00 hrs.
  
  WARNING: Negative pressures at 7:00:00 hrs.
  
  WARNING: Negative pressures at 8:00:00 hrs.
  
  WARNING: Negative pressures at 9:00:00 hrs.
  
  WARNING: Negative pressures at 10:00:00 hrs.
  
  WARNING: Negative pressures at 11:00:00 hrs.
  
  WARNING: Negative pressures at 12:00:00 hrs.
  
  WARNING: Negative pressures at 13:00:00 hrs.
  
  WARNING: Negative pressures at 14:00:00 hrs.
  
  WARNING: Negative pressures at 15:00:00 hrs.
  
  WARNING: Negative pressures at 16:00:00 hrs.
  
  WARNING: Negative pressures at 17:00:00 hrs.
  
  WARNING: Negative pressures at 18:00:00 hrs.
  
  WARNING: Negative pressures at 19:00:00 hrs.
  
  WARNING: Negative pressures at 20:00:00 hrs.
  
  WARNING: Negative pressures at 21:00:00 hrs.
  
  WARNING: Negative pressures at 22:00:00 hrs.
  
  WARNING: Negative pressures at 23:00:00 hrs.
  
  WARNING: Negative pressures at 24:00:00 hrs.
  
  WARNING: Negative pressures at 25:00:00 hrs.
  
  WARNING: Negative pressures at 26:00:00 hrs.
  
  WARNING: Negative pressures at 27:00:00 hrs.
  
  WARNING: Negative pressures at 28:00:00 hrs.
  
  WARNING: Negative pressures at 0:00:00 hrs.
  
  WARNING: Negative pressures at 1:00:00 hrs.
  
  WARNING: Negative pressures at 2:00:00 hrs.
  
  WARNING: Negative pressures at 3:00:00 hrs.
  
  WARNING: Negative pressures at 4:00:00 hrs.
  
  WARNING: Negative pressures at 5:00:00 hrs.
  
  WARNING: Negative pressures at 6:00:00 hrs.
  
  WARNING: Negative pressures at 7:00:00 hrs.
  
  WARNING: Negative pressures at 8:00:00 hrs.
  
  WARNING: Negative pressures at 9:00:00 hrs.
  
  WARNING: Negative pressures at 10:00:00 hrs.
  
  WARNING: Negative pressures at 11:00:00 hrs.
  
  WARNING: Negative pressures at 12:00:00 hrs.
  
  WARNING: Negative pressures at 13:00:00 hrs.
  
  WARNING: Negative pressures at 14:00:00 hrs.
  
  WARNING: Negative pressures at 15:00:00 hrs.
  
  WARNING: Negative pressures at 16:00:00 hrs.
  
  WARNING: Negative pressures at 17:00:00 hrs.
  
  WARNING: Negative pressures at 18:00:00 hrs.
  
  WARNING: Negative pressures at 19:00:00 hrs.
  
  WARNING: Negative pressures at 20:00:00 hrs.
  
  WARNING: Negative pressures at 21:00:00 hrs.
  
  WARNING: Negative pressures at 22:00:00 hrs.
  
  WARNING: Negative pressures at 23:00:00 hrs.
  
  WARNING: Negative pressures at 24:00:00 hrs.
  
  WARNING: Negative pressures at 25:00:00 hrs.
  
  WARNING: Negative pressures at 26:00:00 hrs.
  
  WARNING: Negative pressures at 27:00:00 hrs.
  
  WARNING: Negative pressures at 28:00:00 hrs.
  
  WARNING: Negative pressures at 0:00:00 hrs.
  
  WARNING: Negative pressures at 1:00:00 hrs.
  
  WARNING: Negative pressures at 2:00:00 hrs.
  
  WARNING: Negative pressures at 3:00:00 hrs.
  
  WARNING: Negative pressures at 4:00:00 hrs.
  
  WARNING: Negative pressures at 5:00:00 hrs.
  
  WARNING: Negative pressures at 6:00:00 hrs.
  
  WARNING: Negative pressures at 7:00:00 hrs.
  
  WARNING: Negative pressures at 8:00:00 hrs.
  
  WARNING: Negative pressures at 9:00:00 hrs.
  
  WARNING: Negative pressures at 10:00:00 hrs.
  
  WARNING: Negative pressures at 11:00:00 hrs.
  
  WARNING: Negative pressures at 12:00:00 hrs.
  
  WARNING: Negative pressures at 13:00:00 hrs.
  
  WARNING: Negative pressures at 14:00:00 hrs.
  
  WARNING: Negative pressures at 15:00:00 hrs.
  
  WARNING: Negative pressures at 16:00:00 hrs.
  
  WARNING: Negative pressures at 17:00:00 hrs.
  
  WARNING: Negative pressures at 18:00:00 hrs.
  
  WARNING: Negative pressures at 19:00:00 hrs.
  
  WARNING: Negative pressures at 20:00:00 hrs.
  
  WARNING: Negative pressures at 21:00:00 hrs.
  
  WARNING: Negative pressures at 22:00:00 hrs.
  
  WARNING: Negative pressures at 23:00:00 hrs.
  
  WARNING: Negative pressures at 24:00:00 hrs.
  
  WARNING: Negative pressures at 25:00:00 hrs.
  
  WARNING: Negative pressures at 26:00:00 hrs.
  
  WARNING: Negative pressures at 27:00:00 hrs.
  
  WARNING: Negative pressures at 28:00:00 hrs.
  
  WARNING: Negative pressures at 0:00:00 hrs.
  
  WARNING: Negative pressures at 1:00:00 hrs.
  
  WARNING: Negative pressures at 2:00:00 hrs.
  
  WARNING: Negative pressures at 3:00:00 hrs.
  
  WARNING: Negative pressures at 4:00:00 hrs.
  
  WARNING: Negative pressures at 5:00:00 hrs.
  
  WARNING: Negative pressures at 6:00:00 hrs.
  
  WARNING: Negative pressures at 7:00:00 hrs.
  
  WARNING: Negative pressures at 8:00:00 hrs.
  
  WARNING: Negative pressures at 9:00:00 hrs.
  
  WARNING: Negative pressures at 10:00:00 hrs.
  
  WARNING: Negative pressures at 11:00:00 hrs.
  
  WARNING: Negative pressures at 12:00:00 hrs.
  
  WARNING: Negative pressures at 13:00:00 hrs.
  
  WARNING: Negative pressures at 14:00:00 hrs.
  
  WARNING: Negative pressures at 15:00:00 hrs.
  
  WARNING: Negative pressures at 16:00:00 hrs.
  
  WARNING: Negative pressures at 17:00:00 hrs.
  
  WARNING: Negative pressures at 18:00:00 hrs.
  
  WARNING: Negative pressures at 19:00:00 hrs.
  
  WARNING: Negative pressures at 20:00:00 hrs.
  
  WARNING: Negative pressures at 21:00:00 hrs.
  
  WARNING: Negative pressures at 22:00:00 hrs.
  
  WARNING: Negative pressures at 23:00:00 hrs.
  
  WARNING: Negative pressures at 24:00:00 hrs.
  
  WARNING: Negative pressures at 25:00:00 hrs.
  
  WARNING: Negative pressures at 26:00:00 hrs.
  
  WARNING: Negative pressures at 27:00:00 hrs.
  
  WARNING: Negative pressures at 28:00:00 hrs.
  
  WARNING: Negative pressures at 0:00:00 hrs.
  
  WARNING: Negative pressures at 1:00:00 hrs.
  
  WARNING: Negative pressures at 2:00:00 hrs.
  
  WARNING: Negative pressures at 3:00:00 hrs.
  
  WARNING: Negative pressures at 4:00:00 hrs.
  
  WARNING: Negative pressures at 5:00:00 hrs.
  
  WARNING: Negative pressures at 6:00:00 hrs.
  
  WARNING: Negative pressures at 7:00:00 hrs.
  
  WARNING: Negative pressures at 8:00:00 hrs.
  
  WARNING: Negative pressures at 9:00:00 hrs.
  
  WARNING: Negative pressures at 10:00:00 hrs.
  
  WARNING: Negative pressures at 11:00:00 hrs.
  
  WARNING: Negative pressures at 12:00:00 hrs.
  
  WARNING: Negative pressures at 13:00:00 hrs.
  
  WARNING: Negative pressures at 14:00:00 hrs.
  
  WARNING: Negative pressures at 15:00:00 hrs.
  
  WARNING: Negative pressures at 16:00:00 hrs.
  
  WARNING: Negative pressures at 17:00:00 hrs.
  
  WARNING: Negative pressures at 18:00:00 hrs.
  
  WARNING: Negative pressures at 19:00:00 hrs.
  
  WARNING: Negative pressures at 20:00:00 hrs.
  
  WARNING: Negative pressures at 21:00:00 hrs.
  
  WARNING: Negative pressures at 22:00:00 hrs.
  
  WARNING: Negative pressures at 23:00:00 hrs.
  
  WARNING: Negative pressures at 24:00:00 hrs.
  
  WARNING: Negative pressures at 25:00:00 hrs.
  
  WARNING: Negative pressures at 26:00:00 hrs.
  
  WARNING: Negative pressures at 27:00:00 hrs.
  
  WARNING: Negative pressures at 28:00:00 hrs.
  
  WARNING: Negative pressures at 0:00:00 hrs.
  
  WARNING: Negative pressures at 1:00:00 hrs.
  
  WARNING: Negative pressures at 2:00:00 hrs.
  
  WARNING: Negative pressures at 3:00:00 hrs.
  
  WARNING: Negative pressures at 4:00:00 hrs.
  
  WARNING: Negative pressures at 5:00:00 hrs.
  
  WARNING: Negative pressures at 6:00:00 hrs.
  
  WARNING: Negative pressures at 7:00:00 hrs.
  
  WARNING: Negative pressures at 8:00:00 hrs.
  
  WARNING: Negative pressures at 9:00:00 hrs.
  
  WARNING: Negative pressures at 10:00:00 hrs.
  
  WARNING: Negative pressures at 11:00:00 hrs.
  
  WARNING: Negative pressures at 12:00:00 hrs.
  
  WARNING: Negative pressures at 13:00:00 hrs.
  
  WARNING: Negative pressures at 14:00:00 hrs.
  
  WARNING: Negative pressures at 15:00:00 hrs.
  
  WARNING: Negative pressures at 16:00:00 hrs.
  
  WARNING: Negative pressures at 17:00:00 hrs.
  
  WARNING: Negative pressures at 18:00:00 hrs.
  
  WARNING: Negative pressures at 19:00:00 hrs.
  
  WARNING: Negative pressures at 20:00:00 hrs.
  
  WARNING: Negative pressures at 21:00:00 hrs.
  
  WARNING: Negative pressures at 22:00:00 hrs.
  
  WARNING: Negative pressures at 23:00:00 hrs.
  
  WARNING: Negative pressures at 24:00:00 hrs.
  
  WARNING: Negative pressures at 25:00:00 hrs.
  
  WARNING: Negative pressures at 26:00:00 hrs.
  
  WARNING: Negative pressures at 27:00:00 hrs.
  
  WARNING: Negative pressures at 28:00:00 hrs.
  
  WARNING: Negative pressures at 0:00:00 hrs.
  
  WARNING: Negative pressures at 1:00:00 hrs.
  
  WARNING: Negative pressures at 2:00:00 hrs.
  
  WARNING: Negative pressures at 3:00:00 hrs.
  
  WARNING: Negative pressures at 4:00:00 hrs.
  
  WARNING: Negative pressures at 5:00:00 hrs.
  
  WARNING: Negative pressures at 6:00:00 hrs.
  
  WARNING: Negative pressures at 7:00:00 hrs.
  
  WARNING: Negative pressures at 8:00:00 hrs.
  
  WARNING: Negative pressures at 9:00:00 hrs.
  
  WARNING: Negative pressures at 10:00:00 hrs.
  
  WARNING: Negative pressures at 11:00:00 hrs.
  
  WARNING: Negative pressures at 12:00:00 hrs.
  
  WARNING: Negative pressures at 13:00:00 hrs.
  
  WARNING: Negative pressures at 14:00:00 hrs.
  
  WARNING: Negative pressures at 15:00:00 hrs.
  
  WARNING: Negative pressures at 16:00:00 hrs.
  
  WARNING: Negative pressures at 17:00:00 hrs.
  
  WARNING: Negative pressures at 18:00:00 hrs.
  
  WARNING: Negative pressures at 19:00:00 hrs.
  
  WARNING: Negative pressures at 20:00:00 hrs.
  
  WARNING: Negative pressures at 21:00:00 hrs.
  
  WARNING: Negative pressures at 22:00:00 hrs.
  
  WARNING: Negative pressures at 23:00:00 hrs.
  
  WARNING: Negative pressures at 24:00:00 hrs.
  
  WARNING: Negative pressures at 25:00:00 hrs.
  
  WARNING: Negative pressures at 26:00:00 hrs.
  
  WARNING: Negative pressures at 27:00:00 hrs.
  
  WARNING: Negative pressures at 28:00:00 hrs.
  
  WARNING: Negative pressures at 0:00:00 hrs.
  
  WARNING: Negative pressures at 1:00:00 hrs.
  
  WARNING: Negative pressures at 2:00:00 hrs.
  
  WARNING: Negative pressures at 3:00:00 hrs.
  
  WARNING: Negative pressures at 4:00:00 hrs.
  
  WARNING: Negative pressures at 5:00:00 hrs.
  
  WARNING: Negative pressures at 6:00:00 hrs.
  
  WARNING: Negative pressures at 7:00:00 hrs.
  
  WARNING: Negative pressures at 8:00:00 hrs.
  
  WARNING: Negative pressures at 9:00:00 hrs.
  
  WARNING: Negative pressures at 10:00:00 hrs.
  
  WARNING: Negative pressures at 11:00:00 hrs.
  
  WARNING: Negative pressures at 12:00:00 hrs.
  
  WARNING: Negative pressures at 13:00:00 hrs.
  
  WARNING: Negative pressures at 14:00:00 hrs.
  
  WARNING: Negative pressures at 15:00:00 hrs.
  
  WARNING: Negative pressures at 16:00:00 hrs.
  
  WARNING: Negative pressures at 17:00:00 hrs.
  
  WARNING: Negative pressures at 18:00:00 hrs.
  
  WARNING: Negative pressures at 19:00:00 hrs.
  
  WARNING: Negative pressures at 20:00:00 hrs.
  
  WARNING: Negative pressures at 21:00:00 hrs.
  
  WARNING: Negative pressures at 22:00:00 hrs.
  
  WARNING: Negative pressures at 23:00:00 hrs.
  
  WARNING: Negative pressures at 24:00:00 hrs.
  
  WARNING: Negative pressures at 25:00:00 hrs.
  
  WARNING: Negative pressures at 26:00:00 hrs.
  
  WARNING: Negative pressures at 27:00:00 hrs.
  
  WARNING: Negative pressures at 28:00:00 hrs.
  
  WARNING: Negative pressures at 0:00:00 hrs.
  
  WARNING: Negative pressures at 1:00:00 hrs.
  
  WARNING: Negative pressures at 2:00:00 hrs.
  
  WARNING: Negative pressures at 3:00:00 hrs.
  
  WARNING: Negative pressures at 4:00:00 hrs.
  
  WARNING: Negative pressures at 5:00:00 hrs.
  
  WARNING: Negative pressures at 6:00:00 hrs.
  
  WARNING: Negative pressures at 7:00:00 hrs.
  
  WARNING: Negative pressures at 8:00:00 hrs.
  
  WARNING: Negative pressures at 9:00:00 hrs.
  
  WARNING: Negative pressures at 10:00:00 hrs.
  
  WARNING: Negative pressures at 11:00:00 hrs.
  
  WARNING: Negative pressures at 12:00:00 hrs.
  
  WARNING: Negative pressures at 13:00:00 hrs.
  
  WARNING: Negative pressures at 14:00:00 hrs.
  
  WARNING: Negative pressures at 15:00:00 hrs.
  
  WARNING: Negative pressures at 16:00:00 hrs.
  
  WARNING: Negative pressures at 17:00:00 hrs.
  
  WARNING: Negative pressures at 18:00:00 hrs.
  
  WARNING: Negative pressures at 19:00:00 hrs.
  
  WARNING: Negative pressures at 20:00:00 hrs.
  
  WARNING: Negative pressures at 21:00:00 hrs.
  
  WARNING: Negative pressures at 22:00:00 hrs.
  
  WARNING: Negative pressures at 23:00:00 hrs.
  
  WARNING: Negative pressures at 24:00:00 hrs.
  
  WARNING: Negative pressures at 25:00:00 hrs.
  
  WARNING: Negative pressures at 26:00:00 hrs.
  
  WARNING: Negative pressures at 27:00:00 hrs.
  
  WARNING: Negative pressures at 28:00:00 hrs.
  
  WARNING: Negative pressures at 0:00:00 hrs.
  
  WARNING: Negative pressures at 1:00:00 hrs.
  
  WARNING: Negative pressures at 2:00:00 hrs.
  
  WARNING: Negative pressures at 3:00:00 hrs.
  
  WARNING: Negative pressures at 4:00:00 hrs.
  
  WARNING: Negative pressures at 5:00:00 hrs.
  
  WARNING: Negative pressures at 6:00:00 hrs.
  
  WARNING: Negative pressures at 7:00:00 hrs.
  
  WARNING: Negative pressures at 8:00:00 hrs.
  
  WARNING: Negative pressures at 9:00:00 hrs.
  
  WARNING: Negative pressures at 10:00:00 hrs.
  
  WARNING: Negative pressures at 11:00:00 hrs.
  
  WARNING: Negative pressures at 12:00:00 hrs.
  
  WARNING: Negative pressures at 13:00:00 hrs.
  
  WARNING: Negative pressures at 14:00:00 hrs.
  
  WARNING: Negative pressures at 15:00:00 hrs.
  
  WARNING: Negative pressures at 16:00:00 hrs.
  
  WARNING: Negative pressures at 17:00:00 hrs.
  
  WARNING: Negative pressures at 18:00:00 hrs.
  
  WARNING: Negative pressures at 19:00:00 hrs.
  
  WARNING: Negative pressures at 20:00:00 hrs.
  
  WARNING: Negative pressures at 21:00:00 hrs.
  
  WARNING: Negative pressures at 22:00:00 hrs.
  
  WARNING: Negative pressures at 23:00:00 hrs.
  
  WARNING: Negative pressures at 24:00:00 hrs.
  
  WARNING: Negative pressures at 25:00:00 hrs.
  
  WARNING: Negative pressures at 26:00:00 hrs.
  
  WARNING: Negative pressures at 27:00:00 hrs.
  
  WARNING: Negative pressures at 28:00:00 hrs.
  
  WARNING: Negative pressures at 0:00:00 hrs.
  
  WARNING: Negative pressures at 1:00:00 hrs.
  
  WARNING: Negative pressures at 2:00:00 hrs.
  
  WARNING: Negative pressures at 3:00:00 hrs.
  
  WARNING: Negative pressures at 4:00:00 hrs.
  
  WARNING: Negative pressures at 5:00:00 hrs.
  
  WARNING: Negative pressures at 6:00:00 hrs.
  
  WARNING: Negative pressures at 7:00:00 hrs.
  
  WARNING: Negative pressures at 8:00:00 hrs.
  
  WARNING: Negative pressures at 9:00:00 hrs.
  
  WARNING: Negative pressures at 10:00:00 hrs.
  
  WARNING: Negative pressures at 11:00:00 hrs.
  
  WARNING: Negative pressures at 12:00:00 hrs.
  
  WARNING: Negative pressures at 13:00:00 hrs.
  
  WARNING: Negative pressures at 14:00:00 hrs.
  
  WARNING: Negative pressures at 15:00:00 hrs.
  
  WARNING: Negative pressures at 16:00:00 hrs.
  
  WARNING: Negative pressures at 17:00:00 hrs.
  
  WARNING: Negative pressures at 18:00:00 hrs.
  
  WARNING: Negative pressures at 19:00:00 hrs.
  
  WARNING: Negative pressures at 20:00:00 hrs.
  
  WARNING: Negative pressures at 21:00:00 hrs.
  
  WARNING: Negative pressures at 22:00:00 hrs.
  
  WARNING: Negative pressures at 23:00:00 hrs.
  
  WARNING: Negative pressures at 24:00:00 hrs.
  
  WARNING: Negative pressures at 25:00:00 hrs.
  
  WARNING: Negative pressures at 26:00:00 hrs.
  
  WARNING: Negative pressures at 27:00:00 hrs.
  
  WARNING: Negative pressures at 28:00:00 hrs.
  
  WARNING: Negative pressures at 0:00:00 hrs.
  
  WARNING: Negative pressures at 1:00:00 hrs.
  
  WARNING: Negative pressures at 2:00:00 hrs.
  
  WARNING: Negative pressures at 3:00:00 hrs.
  
  WARNING: Negative pressures at 4:00:00 hrs.
  
  WARNING: Negative pressures at 5:00:00 hrs.
  
  WARNING: Negative pressures at 6:00:00 hrs.
  
  WARNING: Negative pressures at 7:00:00 hrs.
  
  WARNING: Negative pressures at 8:00:00 hrs.
  
  WARNING: Negative pressures at 9:00:00 hrs.
  
  WARNING: Negative pressures at 10:00:00 hrs.
  
  WARNING: Negative pressures at 11:00:00 hrs.
  
  WARNING: Negative pressures at 12:00:00 hrs.
  
  WARNING: Negative pressures at 13:00:00 hrs.
  
  WARNING: Negative pressures at 14:00:00 hrs.
  
  WARNING: Negative pressures at 15:00:00 hrs.
  
  WARNING: Negative pressures at 16:00:00 hrs.
  
  WARNING: Negative pressures at 17:00:00 hrs.
  
  WARNING: Negative pressures at 18:00:00 hrs.
  
  WARNING: Negative pressures at 19:00:00 hrs.
  
  WARNING: Negative pressures at 20:00:00 hrs.
  
  WARNING: Negative pressures at 21:00:00 hrs.
  
  WARNING: Negative pressures at 22:00:00 hrs.
  
  WARNING: Negative pressures at 23:00:00 hrs.
  
  WARNING: Negative pressures at 24:00:00 hrs.
  
  WARNING: Negative pressures at 25:00:00 hrs.
  
  WARNING: Negative pressures at 26:00:00 hrs.
  
  WARNING: Negative pressures at 27:00:00 hrs.
  
  WARNING: Negative pressures at 28:00:00 hrs.
  
  WARNING: Negative pressures at 0:00:00 hrs.
  
  WARNING: Negative pressures at 1:00:00 hrs.
  
  WARNING: Negative pressures at 2:00:00 hrs.
  
  WARNING: Negative pressures at 3:00:00 hrs.
  
  WARNING: Negative pressures at 4:00:00 hrs.
  
[...]
  
  WARNING: Negative pressures at 21:00:00 hrs.
  
  WARNING: Negative pressures at 22:00:00 hrs.
  
  WARNING: Negative pressures at 23:00:00 hrs.
  
  WARNING: Negative pressures at 24:00:00 hrs.
  
  WARNING: Negative pressures at 25:00:00 hrs.
  
  WARNING: Negative pressures at 26:00:00 hrs.
  
  WARNING: Negative pressures at 27:00:00 hrs.
  
  WARNING: Negative pressures at 28:00:00 hrs.
  
  WARNING: Negative pressures at 0:00:00 hrs.
  
  WARNING: Negative pressures at 1:00:00 hrs.
  
  WARNING: Negative pressures at 2:00:00 hrs.
  
  WARNING: Negative pressures at 3:00:00 hrs.
  
  WARNING: Negative pressures at 4:00:00 hrs.
  
  WARNING: Negative pressures at 5:00:00 hrs.
  
  WARNING: Negative pressures at 6:00:00 hrs.
  
  WARNING: Negative pressures at 7:00:00 hrs.
  
  WARNING: Negative pressures at 8:00:00 hrs.
  
  WARNING: Negative pressures at 9:00:00 hrs.
  
  WARNING: Negative pressures at 10:00:00 hrs.
  
  WARNING: Negative pressures at 11:00:00 hrs.
  
  WARNING: Negative pressures at 12:00:00 hrs.
  
  WARNING: Negative pressures at 13:00:00 hrs.
  
  WARNING: Negative pressures at 14:00:00 hrs.
  
  WARNING: Negative pressures at 15:00:00 hrs.
  
  WARNING: Negative pressures at 16:00:00 hrs.
  
  WARNING: Negative pressures at 17:00:00 hrs.
  
  WARNING: Negative pressures at 18:00:00 hrs.
  
  WARNING: Negative pressures at 19:00:00 hrs.
  
  WARNING: Negative pressures at 20:00:00 hrs.
  
  WARNING: Negative pressures at 21:00:00 hrs.
  
  WARNING: Negative pressures at 22:00:00 hrs.
  
  WARNING: Negative pressures at 23:00:00 hrs.
  
  WARNING: Negative pressures at 24:00:00 hrs.
  
  WARNING: Negative pressures at 25:00:00 hrs.
  
  WARNING: Negative pressures at 26:00:00 hrs.
  
  WARNING: Negative pressures at 27:00:00 hrs.
  
  WARNING: Negative pressures at 28:00:00 hrs.
  
  WARNING: Negative pressures at 0:00:00 hrs.
  
  WARNING: Negative pressures at 1:00:00 hrs.
  
  WARNING: Negative pressures at 2:00:00 hrs.
  
  WARNING: Negative pressures at 3:00:00 hrs.
  
  WARNING: Negative pressures at 4:00:00 hrs.
  
  WARNING: Negative pressures at 5:00:00 hrs.
  
  WARNING: Negative pressures at 6:00:00 hrs.
  
  WARNING: Negative pressures at 7:00:00 hrs.
  
  WARNING: Negative pressures at 8:00:00 hrs.
  
  WARNING: Negative pressures at 9:00:00 hrs.
  
  WARNING: Negative pressures at 10:00:00 hrs.
  
  WARNING: Negative pressures at 11:00:00 hrs.
  
  WARNING: Negative pressures at 12:00:00 hrs.
  
  WARNING: Negative pressures at 13:00:00 hrs.
  
  WARNING: Negative pressures at 14:00:00 hrs.
  
  WARNING: Negative pressures at 15:00:00 hrs.
  
  WARNING: Negative pressures at 16:00:00 hrs.
  
  WARNING: Negative pressures at 17:00:00 hrs.
  
  WARNING: Negative pressures at 18:00:00 hrs.
  
  WARNING: Negative pressures at 19:00:00 hrs.
  
  WARNING: Negative pressures at 20:00:00 hrs.
  
  WARNING: Negative pressures at 21:00:00 hrs.
  
  WARNING: Negative pressures at 22:00:00 hrs.
  
  WARNING: Negative pressures at 23:00:00 hrs.
  
  WARNING: Negative pressures at 24:00:00 hrs.
  
  WARNING: Negative pressures at 25:00:00 hrs.
  
  WARNING: Negative pressures at 26:00:00 hrs.
  
  WARNING: Negative pressures at 27:00:00 hrs.
  
  WARNING: Negative pressures at 28:00:00 hrs.
  
  WARNING: Negative pressures at 0:00:00 hrs.
  
  WARNING: Negative pressures at 1:00:00 hrs.
  
  WARNING: Negative pressures at 2:00:00 hrs.
  
  WARNING: Negative pressures at 3:00:00 hrs.
  
  WARNING: Negative pressures at 4:00:00 hrs.
  
  WARNING: Negative pressures at 5:00:00 hrs.
  
  WARNING: Negative pressures at 6:00:00 hrs.
  
  WARNING: Negative pressures at 7:00:00 hrs.
  
  WARNING: Negative pressures at 8:00:00 hrs.
  
  WARNING: Negative pressures at 9:00:00 hrs.
  
  WARNING: Negative pressures at 10:00:00 hrs.
  
  WARNING: Negative pressures at 11:00:00 hrs.
  
  WARNING: Negative pressures at 12:00:00 hrs.
  
  WARNING: Negative pressures at 13:00:00 hrs.
  
  WARNING: Negative pressures at 14:00:00 hrs.
  
  WARNING: Negative pressures at 15:00:00 hrs.
  
  WARNING: Negative pressures at 16:00:00 hrs.
  
  WARNING: Negative pressures at 17:00:00 hrs.
  
  WARNING: Negative pressures at 18:00:00 hrs.
  
  WARNING: Negative pressures at 19:00:00 hrs.
  
  WARNING: Negative pressures at 20:00:00 hrs.
  
  WARNING: Negative pressures at 21:00:00 hrs.
  
  WARNING: Negative pressures at 22:00:00 hrs.
  
  WARNING: Negative pressures at 23:00:00 hrs.
  
  WARNING: Negative pressures at 24:00:00 hrs.
  
  WARNING: Negative pressures at 25:00:00 hrs.
  
  WARNING: Negative pressures at 26:00:00 hrs.
  
  WARNING: Negative pressures at 27:00:00 hrs.
  
  WARNING: Negative pressures at 28:00:00 hrs.
  
  WARNING: Negative pressures at 0:00:00 hrs.
  
  WARNING: Negative pressures at 1:00:00 hrs.
  
  WARNING: Negative pressures at 2:00:00 hrs.
  
  WARNING: Negative pressures at 3:00:00 hrs.
  
  WARNING: Negative pressures at 4:00:00 hrs.
  
  WARNING: Negative pressures at 5:00:00 hrs.
  
  WARNING: Negative pressures at 6:00:00 hrs.
  
  WARNING: Negative pressures at 7:00:00 hrs.
  
  WARNING: Negative pressures at 8:00:00 hrs.
  
  WARNING: Negative pressures at 9:00:00 hrs.
  
  WARNING: Negative pressures at 10:00:00 hrs.
  
  WARNING: Negative pressures at 11:00:00 hrs.
  
  WARNING: Negative pressures at 12:00:00 hrs.
  
  WARNING: Negative pressures at 13:00:00 hrs.
  
  WARNING: Negative pressures at 14:00:00 hrs.
  
  WARNING: Negative pressures at 15:00:00 hrs.
  
  WARNING: Negative pressures at 16:00:00 hrs.
  
  WARNING: Negative pressures at 17:00:00 hrs.
  
  WARNING: Negative pressures at 18:00:00 hrs.
  
  WARNING: Negative pressures at 19:00:00 hrs.
  
  WARNING: Negative pressures at 20:00:00 hrs.
  
  WARNING: Negative pressures at 21:00:00 hrs.
  
  WARNING: Negative pressures at 22:00:00 hrs.
  
  WARNING: Negative pressures at 23:00:00 hrs.
  
  WARNING: Negative pressures at 24:00:00 hrs.
  
  WARNING: Negative pressures at 25:00:00 hrs.
  
  WARNING: Negative pressures at 26:00:00 hrs.
  
  WARNING: Negative pressures at 27:00:00 hrs.
  
  WARNING: Negative pressures at 28:00:00 hrs.
  
  WARNING: Negative pressures at 0:00:00 hrs.
  
  WARNING: Negative pressures at 1:00:00 hrs.
  
  WARNING: Negative pressures at 2:00:00 hrs.
  
  WARNING: Negative pressures at 3:00:00 hrs.
  
  WARNING: Negative pressures at 4:00:00 hrs.
  
  WARNING: Negative pressures at 5:00:00 hrs.
  
  WARNING: Negative pressures at 6:00:00 hrs.
  
  WARNING: Negative pressures at 7:00:00 hrs.
  
  WARNING: Negative pressures at 8:00:00 hrs.
  
  WARNING: Negative pressures at 9:00:00 hrs.
  
  WARNING: Negative pressures at 10:00:00 hrs.
  
  WARNING: Negative pressures at 11:00:00 hrs.
  
  WARNING: Negative pressures at 12:00:00 hrs.
  
  WARNING: Negative pressures at 13:00:00 hrs.
  
  WARNING: Negative pressures at 14:00:00 hrs.
  
  WARNING: Negative pressures at 15:00:00 hrs.
  
  WARNING: Negative pressures at 16:00:00 hrs.
  
  WARNING: Negative pressures at 17:00:00 hrs.
  
  WARNING: Negative pressures at 18:00:00 hrs.
  
  WARNING: Negative pressures at 19:00:00 hrs.
  
  WARNING: Negative pressures at 20:00:00 hrs.
  
  WARNING: Negative pressures at 21:00:00 hrs.
  
  WARNING: Negative pressures at 22:00:00 hrs.
  
  WARNING: Negative pressures at 23:00:00 hrs.
  
  WARNING: Negative pressures at 24:00:00 hrs.
  
  WARNING: Negative pressures at 25:00:00 hrs.
  
  WARNING: Negative pressures at 26:00:00 hrs.
  
  WARNING: Negative pressures at 27:00:00 hrs.
  
  WARNING: Negative pressures at 28:00:00 hrs.
  
  WARNING: Negative pressures at 0:00:00 hrs.
  
  WARNING: Negative pressures at 1:00:00 hrs.
  
  WARNING: Negative pressures at 2:00:00 hrs.
  
  WARNING: Negative pressures at 3:00:00 hrs.
  
  WARNING: Negative pressures at 4:00:00 hrs.
  
  WARNING: Negative pressures at 5:00:00 hrs.
  
  WARNING: Negative pressures at 6:00:00 hrs.
  
  WARNING: Negative pressures at 7:00:00 hrs.
  
  WARNING: Negative pressures at 8:00:00 hrs.
  
  WARNING: Negative pressures at 9:00:00 hrs.
  
  WARNING: Negative pressures at 10:00:00 hrs.
  
  WARNING: Negative pressures at 11:00:00 hrs.
  
  WARNING: Negative pressures at 12:00:00 hrs.
  
  WARNING: Negative pressures at 13:00:00 hrs.
  
  WARNING: Negative pressures at 14:00:00 hrs.
  
  WARNING: Negative pressures at 15:00:00 hrs.
  
  WARNING: Negative pressures at 16:00:00 hrs.
  
  WARNING: Negative pressures at 17:00:00 hrs.
  
  WARNING: Negative pressures at 18:00:00 hrs.
  
  WARNING: Negative pressures at 19:00:00 hrs.
  
  WARNING: Negative pressures at 20:00:00 hrs.
  
  WARNING: Negative pressures at 21:00:00 hrs.
  
  WARNING: Negative pressures at 22:00:00 hrs.
  
  WARNING: Negative pressures at 23:00:00 hrs.
  
  WARNING: Negative pressures at 24:00:00 hrs.
  
  WARNING: Negative pressures at 25:00:00 hrs.
  
  WARNING: Negative pressures at 26:00:00 hrs.
  
  WARNING: Negative pressures at 27:00:00 hrs.
  
  WARNING: Negative pressures at 28:00:00 hrs.
  
  WARNING: Negative pressures at 1:00:00 hrs.
  
  WARNING: Negative pressures at 2:00:00 hrs.
  
  WARNING: Negative pressures at 3:00:00 hrs.
  
  WARNING: Negative pressures at 4:00:00 hrs.
  
  WARNING: Negative pressures at 5:00:00 hrs.
  
  WARNING: Negative pressures at 6:00:00 hrs.
  
  WARNING: Negative pressures at 7:00:00 hrs.
  
  WARNING: Negative pressures at 8:00:00 hrs.
  
  WARNING: Negative pressures at 9:00:00 hrs.
  
  WARNING: Negative pressures at 10:00:00 hrs.
  
  WARNING: Negative pressures at 11:00:00 hrs.
  
  WARNING: Negative pressures at 12:00:00 hrs.
  
  WARNING: Negative pressures at 13:00:00 hrs.
  
  WARNING: Negative pressures at 14:00:00 hrs.
  
  WARNING: Negative pressures at 15:00:00 hrs.
  
  WARNING: Negative pressures at 16:00:00 hrs.
  
  WARNING: Negative pressures at 17:00:00 hrs.
  
  WARNING: Negative pressures at 18:00:00 hrs.
  
  WARNING: Negative pressures at 19:00:00 hrs.
  
  WARNING: Negative pressures at 22:00:00 hrs.
  
  WARNING: Negative pressures at 23:00:00 hrs.
  
  WARNING: Negative pressures at 27:00:00 hrs.
  
  WARNING: Negative pressures at 1:00:00 hrs.
  
  WARNING: Negative pressures at 2:00:00 hrs.
  
  WARNING: Negative pressures at 3:00:00 hrs.
  
  WARNING: Negative pressures at 4:00:00 hrs.
  
  WARNING: Negative pressures at 5:00:00 hrs.
  
  WARNING: Negative pressures at 6:00:00 hrs.
  
  WARNING: Negative pressures at 7:00:00 hrs.
  
  WARNING: Negative pressures at 8:00:00 hrs.
  
  WARNING: Negative pressures at 9:00:00 hrs.
  
  WARNING: Negative pressures at 10:00:00 hrs.
  
  WARNING: Negative pressures at 11:00:00 hrs.
  
  WARNING: Negative pressures at 12:00:00 hrs.
  
  WARNING: Negative pressures at 13:00:00 hrs.
  
  WARNING: Negative pressures at 14:00:00 hrs.
  
  WARNING: Negative pressures at 15:00:00 hrs.
  
  WARNING: Negative pressures at 16:00:00 hrs.
  
  WARNING: Negative pressures at 17:00:00 hrs.
  
  WARNING: Negative pressures at 18:00:00 hrs.
  
  WARNING: Negative pressures at 19:00:00 hrs.
  
  WARNING: Negative pressures at 22:00:00 hrs.
  
  WARNING: Negative pressures at 23:00:00 hrs.
  
  WARNING: Negative pressures at 27:00:00 hrs.
  
  WARNING: Negative pressures at 1:00:00 hrs.
  
  WARNING: Negative pressures at 2:00:00 hrs.
  
  WARNING: Negative pressures at 3:00:00 hrs.
  
  WARNING: Negative pressures at 4:00:00 hrs.
  
  WARNING: Negative pressures at 5:00:00 hrs.
  
  WARNING: Negative pressures at 6:00:00 hrs.
  
  WARNING: Negative pressures at 8:00:00 hrs.
  
  WARNING: Negative pressures at 9:00:00 hrs.
  
  WARNING: Negative pressures at 10:00:00 hrs.
  
  WARNING: Negative pressures at 11:00:00 hrs.
  
  WARNING: Negative pressures at 12:00:00 hrs.
  
  WARNING: Negative pressures at 13:00:00 hrs.
  
  WARNING: Negative pressures at 14:00:00 hrs.
  
  WARNING: Negative pressures at 15:00:00 hrs.
  
  WARNING: Negative pressures at 16:00:00 hrs.
  
  WARNING: Negative pressures at 17:00:00 hrs.
  
  WARNING: Negative pressures at 18:00:00 hrs.
  
  WARNING: Negative pressures at 27:00:00 hrs.
  
  WARNING: Negative pressures at 1:00:00 hrs.
  
  WARNING: Negative pressures at 2:00:00 hrs.
  
  WARNING: Negative pressures at 3:00:00 hrs.
  
  WARNING: Negative pressures at 4:00:00 hrs.
  
  WARNING: Negative pressures at 8:00:00 hrs.
  
  WARNING: Negative pressures at 9:00:00 hrs.
  
  WARNING: Negative pressures at 10:00:00 hrs.
  
  WARNING: Negative pressures at 11:00:00 hrs.
  
  WARNING: Negative pressures at 12:00:00 hrs.
  
  WARNING: Negative pressures at 13:00:00 hrs.
  
  WARNING: Negative pressures at 14:00:00 hrs.
  
  WARNING: Negative pressures at 15:00:00 hrs.
  
  WARNING: Negative pressures at 16:00:00 hrs.
  
  WARNING: Negative pressures at 27:00:00 hrs.
  
  WARNING: Negative pressures at 1:00:00 hrs.
  
  WARNING: Negative pressures at 2:00:00 hrs.
  
  WARNING: Negative pressures at 3:00:00 hrs.
  
  WARNING: Negative pressures at 4:00:00 hrs.
  
  WARNING: Negative pressures at 8:00:00 hrs.
  
  WARNING: Negative pressures at 9:00:00 hrs.
  
  WARNING: Negative pressures at 10:00:00 hrs.
  
  WARNING: Negative pressures at 11:00:00 hrs.
  
  WARNING: Negative pressures at 12:00:00 hrs.
  
  WARNING: Negative pressures at 13:00:00 hrs.
  
  WARNING: Negative pressures at 14:00:00 hrs.
  
  WARNING: Negative pressures at 15:00:00 hrs.
  
  WARNING: Negative pressures at 16:00:00 hrs.
  
  WARNING: Negative pressures at 1:00:00 hrs.
  
  WARNING: Negative pressures at 2:00:00 hrs.
  
  WARNING: Negative pressures at 3:00:00 hrs.
  
  WARNING: Negative pressures at 4:00:00 hrs.
  
  WARNING: Negative pressures at 8:00:00 hrs.
  
  WARNING: Negative pressures at 9:00:00 hrs.
  
  WARNING: Negative pressures at 10:00:00 hrs.
  
  WARNING: Negative pressures at 11:00:00 hrs.
  
  WARNING: Negative pressures at 12:00:00 hrs.
  
  WARNING: Negative pressures at 13:00:00 hrs.
  
  WARNING: Negative pressures at 14:00:00 hrs.
  
  WARNING: Negative pressures at 15:00:00 hrs.
  
  WARNING: Negative pressures at 16:00:00 hrs.
  
  WARNING: Negative pressures at 1:00:00 hrs.
  
  WARNING: Negative pressures at 2:00:00 hrs.
  
  WARNING: Negative pressures at 3:00:00 hrs.
  
  WARNING: Negative pressures at 4:00:00 hrs.
  
  WARNING: Negative pressures at 8:00:00 hrs.
  
  WARNING: Negative pressures at 9:00:00 hrs.
  
  WARNING: Negative pressures at 10:00:00 hrs.
  
  WARNING: Negative pressures at 11:00:00 hrs.
  
  WARNING: Negative pressures at 12:00:00 hrs.
  
  WARNING: Negative pressures at 13:00:00 hrs.
  
  WARNING: Negative pressures at 14:00:00 hrs.
  
  WARNING: Negative pressures at 15:00:00 hrs.
  
  WARNING: Negative pressures at 1:00:00 hrs.
  
  WARNING: Negative pressures at 2:00:00 hrs.
  
  WARNING: Negative pressures at 3:00:00 hrs.
  
  WARNING: Negative pressures at 4:00:00 hrs.
  
  WARNING: Negative pressures at 8:00:00 hrs.
  
  WARNING: Negative pressures at 9:00:00 hrs.
  
  WARNING: Negative pressures at 10:00:00 hrs.
  
  WARNING: Negative pressures at 12:00:00 hrs.
  
  WARNING: Negative pressures at 13:00:00 hrs.
  
  WARNING: Negative pressures at 14:00:00 hrs.
  
  WARNING: Negative pressures at 15:00:00 hrs.
  
  WARNING: Negative pressures at 1:00:00 hrs.
  
  WARNING: Negative pressures at 2:00:00 hrs.
  
  WARNING: Negative pressures at 3:00:00 hrs.
  
  WARNING: Negative pressures at 8:00:00 hrs.
  
  WARNING: Negative pressures at 9:00:00 hrs.
  
  WARNING: Negative pressures at 10:00:00 hrs.
  
  WARNING: Negative pressures at 12:00:00 hrs.
  
  WARNING: Negative pressures at 13:00:00 hrs.
  
  WARNING: Negative pressures at 14:00:00 hrs.
  
  WARNING: Negative pressures at 15:00:00 hrs.
  
  WARNING: Negative pressures at 1:00:00 hrs.
  
  WARNING: Negative pressures at 2:00:00 hrs.
  
  WARNING: Negative pressures at 3:00:00 hrs.
  
  WARNING: Negative pressures at 8:00:00 hrs.
  
  WARNING: Negative pressures at 9:00:00 hrs.
  
  WARNING: Negative pressures at 10:00:00 hrs.
  
  WARNING: Negative pressures at 12:00:00 hrs.
  
  WARNING: Negative pressures at 13:00:00 hrs.
  
  WARNING: Negative pressures at 14:00:00 hrs.
  
  WARNING: Negative pressures at 15:00:00 hrs.
  
  WARNING: Negative pressures at 1:00:00 hrs.
  
  WARNING: Negative pressures at 2:00:00 hrs.
  
  WARNING: Negative pressures at 3:00:00 hrs.
  
  WARNING: Negative pressures at 9:00:00 hrs.
  
  WARNING: Negative pressures at 10:00:00 hrs.
  
  WARNING: Negative pressures at 12:00:00 hrs.
  
  WARNING: Negative pressures at 13:00:00 hrs.
  
  WARNING: Negative pressures at 14:00:00 hrs.
  
  WARNING: Negative pressures at 15:00:00 hrs.
  
  WARNING: Negative pressures at 1:00:00 hrs.
  
  WARNING: Negative pressures at 2:00:00 hrs.
  
  WARNING: Negative pressures at 3:00:00 hrs.
  
  WARNING: Negative pressures at 9:00:00 hrs.
  
  WARNING: Negative pressures at 10:00:00 hrs.
  
  WARNING: Negative pressures at 13:00:00 hrs.
  
  WARNING: Negative pressures at 14:00:00 hrs.
  
  WARNING: Negative pressures at 15:00:00 hrs.
  
  WARNING: Negative pressures at 1:00:00 hrs.
  
  WARNING: Negative pressures at 2:00:00 hrs.
  
  WARNING: Negative pressures at 3:00:00 hrs.
  
  WARNING: Negative pressures at 9:00:00 hrs.
  
  WARNING: Negative pressures at 10:00:00 hrs.
  
  WARNING: Negative pressures at 13:00:00 hrs.
  
  WARNING: Negative pressures at 14:00:00 hrs.
  
  WARNING: Negative pressures at 15:00:00 hrs.
  
  WARNING: Negative pressures at 1:00:00 hrs.
  
  WARNING: Negative pressures at 2:00:00 hrs.
  
  WARNING: Negative pressures at 3:00:00 hrs.
  
  WARNING: Negative pressures at 9:00:00 hrs.
  
  WARNING: Negative pressures at 10:00:00 hrs.
  
  WARNING: Negative pressures at 13:00:00 hrs.
  
  WARNING: Negative pressures at 14:00:00 hrs.
  
  WARNING: Negative pressures at 15:00:00 hrs.
  
  WARNING: Negative pressures at 1:00:00 hrs.
  
  WARNING: Negative pressures at 2:00:00 hrs.
  
  WARNING: Negative pressures at 3:00:00 hrs.
  
  WARNING: Negative pressures at 9:00:00 hrs.
  
  WARNING: Negative pressures at 10:00:00 hrs.
  
  WARNING: Negative pressures at 13:00:00 hrs.
  
  WARNING: Negative pressures at 14:00:00 hrs.
  
  WARNING: Negative pressures at 15:00:00 hrs.
  
  WARNING: Negative pressures at 1:00:00 hrs.
  
  WARNING: Negative pressures at 2:00:00 hrs.
  
  WARNING: Negative pressures at 3:00:00 hrs.
  
  WARNING: Negative pressures at 9:00:00 hrs.
  
  WARNING: Negative pressures at 10:00:00 hrs.
  
  WARNING: Negative pressures at 13:00:00 hrs.
  
  WARNING: Negative pressures at 14:00:00 hrs.
  
  WARNING: Negative pressures at 15:00:00 hrs.
  
  WARNING: Negative pressures at 1:00:00 hrs.
  
  WARNING: Negative pressures at 2:00:00 hrs.
  
  WARNING: Negative pressures at 3:00:00 hrs.
  
  WARNING: Negative pressures at 10:00:00 hrs.
  
  WARNING: Negative pressures at 13:00:00 hrs.
  
  WARNING: Negative pressures at 14:00:00 hrs.
  
  WARNING: Negative pressures at 15:00:00 hrs.
  
  WARNING: Negative pressures at 1:00:00 hrs.
  
  WARNING: Negative pressures at 2:00:00 hrs.
  
  WARNING: Negative pressures at 3:00:00 hrs.
  
  WARNING: Negative pressures at 10:00:00 hrs.
  
  WARNING: Negative pressures at 13:00:00 hrs.
  
  WARNING: Negative pressures at 14:00:00 hrs.
  
  WARNING: Negative pressures at 15:00:00 hrs.
  
  WARNING: Negative pressures at 1:00:00 hrs.
  
  WARNING: Negative pressures at 2:00:00 hrs.
  
  WARNING: Negative pressures at 3:00:00 hrs.
  
  WARNING: Negative pressures at 15:00:00 hrs.
  
  WARNING: Negative pressures at 1:00:00 hrs.
  
  WARNING: Negative pressures at 2:00:00 hrs.
  
  WARNING: Negative pressures at 15:00:00 hrs.
  
  WARNING: Negative pressures at 1:00:00 hrs.
  
  WARNING: Negative pressures at 2:00:00 hrs.
  
  WARNING: Negative pressures at 1:00:00 hrs.
  
  WARNING: Negative pressures at 1:00:00 hrs.
  
  WARNING: Negative pressures at 2:00:00 hrs.
  
  Analysis ended Mon Apr 13 17:43:47 2026
