  Page 1                                    Mon Apr 13 17:43:22 2026

  ******************************************************************
  *                           E P A N E T                          *
  *                   Hydraulic and Water Quality                  *
  *                   Analysis for Pipe Networks                   *
  *                         Version 2.00.12                        *
  ******************************************************************
  
  Analysis begun Mon Apr 13 17:43:22 2026

  Analysis ended Mon Apr 13 17:43:34 2026
